   8
 angstrom
N       0.00000000     0.00000000     0.00000000
X      0.00052916     0.00000395    -0.00000127
X      0.43846069    -0.45617849     0.52939294
X     -0.65895086     0.31184953     0.38618274
X      0.46846716     0.61584457    -0.28614238
X     -0.24916170    -0.47152630    -0.62943219
He      0.01591621     0.02094463    -0.00972606
He     -0.45022807    -0.59232801     0.27507472
