13               
angstrom
O       0.00000000     0.00000000     0.00000000
H       0.00000000     0.00000000     0.95691000
H       0.92636000     0.00000000    -0.23987000
X      0.00000000     0.00000000     0.00000000
X      0.00000000     0.00000000     0.81337350
X      0.78740600     0.00000000    -0.20388950
X     -0.34991098     0.53108504    -0.27098210
X     -0.35000458    -0.53108505    -0.27086117
He      0.00000000     0.00000000     0.00000000
He     -0.34991098     0.53108504    -0.27098210
He     -0.35000458    -0.53108505    -0.27086117
He      0.00000000     0.00000000     0.81337350
He      0.78740600     0.00000000    -0.20388950
