74               
angstrom
C       3.45550000    -0.66350000     0.00000000
C       2.30360000    -1.33150000     0.00000000
C       1.15180000    -0.66350000     0.00000000
N       0.00000000     0.00000000     0.00000000
C       2.30360000    -2.65840000     0.00000000
C       1.15180000    -3.32650000     0.00000000
N       0.00000000    -3.98990000     0.00000000
C       3.45550000    -3.32650000     0.00000000
N       4.60730000    -3.98990000     0.00000000
N       4.60730000     0.00000000     0.00000000
X      3.45550000    -0.66350000     0.00000000
X      2.87955000    -0.99750000     0.00000000
X      4.11911972    -0.48402668     0.35796069
X      3.83235002     0.01378997     0.00017902
X      4.11889821    -0.48364215    -0.35817821
X      2.30360000    -1.33150000     0.00000000
X      1.72770000    -0.99750000     0.00000000
X      2.30362024    -1.99495000    -0.39807000
X      2.30363343    -1.99495000     0.39807000
X      1.15180000    -0.66350000     0.00000000
X      0.68183911    -0.14784545     0.33760157
X      0.37781243    -0.67561927    -0.03916673
X      0.68058949    -0.15001472    -0.33916248
X      0.00000000     0.00000000     0.00000000
X     -0.57590000     0.33175000     0.00000000
X      2.30360000    -2.65840000     0.00000000
X      1.72770000    -2.99245000     0.00000000
X      2.87955000    -2.99245000     0.00000000
X      1.15180000    -3.32650000     0.00000000
X      0.37783145    -3.31431191    -0.03894461
X      0.68047926    -3.83977129    -0.33926671
X      0.68188965    -3.84222001     0.33750508
X      0.00000000    -3.98990000     0.00000000
X     -0.57590000    -4.32160000     0.00000000
X      3.45550000    -3.32650000     0.00000000
X      4.11904271    -3.50603408     0.35800997
X      4.11896781    -3.50616413    -0.35808354
X      3.83238000    -4.00374000     0.00006011
X      4.60730000    -3.98990000     0.00000000
X      5.18320000    -4.32160000     0.00000000
X      4.60730000     0.00000000     0.00000000
X      5.18320000     0.33175000     0.00000000
He      3.45550000    -0.66350000     0.00000000
He      2.30360000    -1.33150000     0.00000000
He      2.87955000    -0.99750000     0.00000000
He      1.15180000    -0.66350000     0.00000000
He      1.72770000    -0.99750000     0.00000000
He      0.00000000     0.00000000     0.00000000
He      0.68058949    -0.15001472    -0.33916248
He      0.37781243    -0.67561927    -0.03916673
He      0.68183911    -0.14784545     0.33760157
He     -0.57590000     0.33175000     0.00000000
He      2.30360000    -2.65840000     0.00000000
He      2.30363343    -1.99495000     0.39807000
He      2.30362024    -1.99495000    -0.39807000
He      1.15180000    -3.32650000     0.00000000
He      1.72770000    -2.99245000     0.00000000
He      0.00000000    -3.98990000     0.00000000
He      0.68188965    -3.84222001     0.33750508
He      0.68047926    -3.83977129    -0.33926671
He      0.37783145    -3.31431191    -0.03894461
He     -0.57590000    -4.32160000     0.00000000
He      3.45550000    -3.32650000     0.00000000
He      2.87955000    -2.99245000     0.00000000
He      4.60730000    -3.98990000     0.00000000
He      3.83238000    -4.00374000     0.00006011
He      4.11896781    -3.50616413    -0.35808354
He      4.11904271    -3.50603408     0.35800997
He      5.18320000    -4.32160000     0.00000000
He      4.60730000     0.00000000     0.00000000
He      4.11889821    -0.48364215    -0.35817821
He      3.83235002     0.01378997     0.00017902
He      4.11911972    -0.48402668     0.35796069
He      5.18320000     0.33175000     0.00000000
