19               
 angstrom
Ar      0.00000000     0.00000000     0.00000000
X      0.00000000     0.00000000     0.00000000
X      0.03944753    -0.07495296    -0.18645510
X     -0.20237644     0.02007231     0.02409225
X      0.07327409    -0.12811132     0.14197872
X      0.08965482     0.18299197     0.02038413
X     -0.13561022     0.25664334     0.64115998
X      0.69549336    -0.06919181    -0.08272569
X     -0.25147785     0.44117317    -0.48730607
X     -0.30840529    -0.62862472    -0.07112824
He      0.00000000     0.00000000     0.00000000
He     -0.03944474     0.07477467     0.18652726
He      0.20237660    -0.02003941    -0.02411830
He     -0.07328546     0.12824183    -0.14185497
He     -0.08964639    -0.18297710    -0.02055399
He      0.13289404    -0.25961917    -0.64053034
He     -0.69502416     0.07169615     0.08451709
He      0.25155631    -0.44001233     0.48831410
He      0.31057381     0.62793536     0.06769917
