54               
angstrom
C      -0.70400000    -1.21940000    -0.00000000
C       0.70400000    -1.21940000    -0.00000000
C      -1.40810000    -0.00000000    -0.00000000
C       1.40810000     0.00000000     0.00000000
C      -0.70400000     1.21940000     0.00000000
C       0.70400000     1.21940000    -0.00000000
H      -1.21520000    -2.10480000    -0.00000000
H       1.21520000    -2.10480000     0.00000000
H      -2.43040000    -0.00000000     0.00000000
H       2.43040000     0.00000000     0.00000000
H      -1.21520000     2.10480000    -0.00000000
H       1.21520000     2.10480000     0.00000000
X     -0.70400000    -1.21940000     0.00000000
X      0.00000000    -1.53818419    -0.46940646
X      0.00000000    -1.53823539     0.46937168
X     -1.05605000    -0.60970000    -0.00000000
X     -1.13852000    -1.97199000     0.00000000
X      0.70400000    -1.21940000     0.00000000
X      1.05605000    -0.60970000     0.00000000
X      1.13852000    -1.97199000     0.00000000
X     -1.40810000     0.00000000     0.00000000
X     -1.33215339     0.76912627    -0.46932534
X     -1.33206952     0.76907784     0.46939112
X     -2.27705500     0.00000000     0.00000000
X      1.40810000     0.00000000     0.00000000
X      1.33207506     0.76908105     0.46938677
X      1.33207465     0.76908080    -0.46938710
X      2.27705500     0.00000000     0.00000000
X     -0.70400000     1.21940000     0.00000000
X      0.00000000     1.21940000     0.00000000
X     -1.13852000     1.97199000     0.00000000
X      0.70400000     1.21940000     0.00000000
X      1.13852000     1.97199000     0.00000000
He     -0.70400000    -1.21940000     0.00000000
He      0.70400000    -1.21940000     0.00000000
He      0.00000000    -1.53823539     0.46937168
He      0.00000000    -1.53818419    -0.46940646
He     -1.40810000     0.00000000     0.00000000
He     -1.05605000    -0.60970000    -0.00000000
He      1.40810000     0.00000000     0.00000000
He      1.05605000    -0.60970000     0.00000000
He     -0.70400000     1.21940000     0.00000000
He     -1.33206952     0.76907784     0.46939112
He     -1.33215339     0.76912627    -0.46932534
He      0.70400000     1.21940000     0.00000000
He      1.33207465     0.76908080    -0.46938710
He      1.33207506     0.76908105     0.46938677
He      0.00000000     1.21940000     0.00000000
He     -1.13852000    -1.97199000     0.00000000
He      1.13852000    -1.97199000     0.00000000
He     -2.27705500     0.00000000     0.00000000
He      2.27705500     0.00000000     0.00000000
He     -1.13852000     1.97199000     0.00000000
He      1.13852000     1.97199000     0.00000000
