124              
angstrom
N      -3.35860000    -3.15990000     0.00000000
N      -4.56210000     0.67420000     0.00000000
N       3.35900000     3.15980000    -0.00000000
N       4.56180000    -0.67450000    -0.00000000
C      -1.35740000    -0.42590000     0.00000000
C       1.35730000     0.42600000    -0.00000000
C      -0.29170000    -1.32200000    -0.00000000
C      -0.99470000     0.91840000    -0.00000000
C       0.99470000    -0.91830000    -0.00000000
C       0.29170000     1.32210000    -0.00000000
C      -2.65660000    -0.83360000     0.00000000
C       2.65650000     0.83360000    -0.00000000
C      -3.04310000    -2.05460000     0.00000000
C      -3.67150000    -0.05240000     0.00000000
C       3.04320000     2.05450000    -0.00000000
C       3.67130000     0.05230000    -0.00000000
H      -0.44520000    -2.30540000    -0.00000000
H      -1.68260000     1.63780000    -0.00000000
H       1.68260000    -1.63770000    -0.00000000
H       0.44520000     2.30550000    -0.00000000
X     -3.35860000    -3.15990000     0.00000000
X     -3.07581727    -2.64293970    -0.31938004
X     -3.53243998    -2.51260001    -0.00012639
X     -3.07625283    -2.64281537     0.31956408
X     -3.51635000    -3.71255000     0.00000000
X     -4.56210000     0.67420000     0.00000000
X     -4.03523327     0.41087705     0.31976850
X     -4.03416680     0.41218423    -0.31908258
X     -4.33477953     0.04372058    -0.00071636
X     -5.00740000     1.03750000     0.00000000
X      3.35900000     3.15980000     0.00000000
X      3.07624278     2.64282349     0.31947719
X      3.53268998     2.51241001     0.00012884
X      3.07641285     2.64277490    -0.31954902
X      3.51690000     3.71245000     0.00000000
X      4.56180000    -0.67450000     0.00000000
X      4.33458996    -0.04395005     0.00021268
X      4.03462600    -0.41147607    -0.31956794
X      4.03440068    -0.41175213     0.31942323
X      5.00705000    -1.03790000     0.00000000
X     -1.35740000    -0.42590000     0.00000000
X     -0.82455000    -0.87395000     0.00000000
X     -1.17605000     0.24625000     0.00000000
X     -2.00701520    -0.62970156    -0.40850042
X     -2.00699060    -0.62977997     0.40850042
X      1.35730000     0.42600000     0.00000000
X      1.17600000    -0.24615000    -0.00000000
X      0.82450000     0.87405000    -0.00000000
X      2.00688857     0.62983643     0.40849144
X      2.00689067     0.62982973    -0.40849144
X     -0.29170000    -1.32200000     0.00000000
X      0.44692671    -1.42422957    -0.45118795
X      0.44690305    -1.42415416     0.45124377
X     -0.42217500    -2.15789000     0.00000000
X     -0.99470000     0.91840000     0.00000000
X     -0.44694399     1.42438462     0.45118302
X     -0.44692334     1.42431881    -0.45123174
X     -1.57941500     1.52989000     0.00000000
X      0.99470000    -0.91830000     0.00000000
X      1.57941500    -1.52979000     0.00000000
X      0.29170000     1.32210000     0.00000000
X      0.42217500     2.15799000     0.00000000
X     -2.65660000    -0.83360000     0.00000000
X     -2.84985000    -1.44410000     0.00000000
X     -3.16405000    -0.44300000     0.00000000
X      2.65650000     0.83360000     0.00000000
X      2.84985000     1.44405000    -0.00000000
X      3.16390000     0.44295000    -0.00000000
X     -3.04310000    -2.05460000     0.00000000
X     -3.67150000    -0.05240000     0.00000000
X      3.04320000     2.05450000     0.00000000
X      3.67130000     0.05230000     0.00000000
He     -3.35860000    -3.15990000     0.00000000
He     -3.51635000    -3.71255000     0.00000000
He     -4.56210000     0.67420000     0.00000000
He     -5.00740000     1.03750000     0.00000000
He      3.35900000     3.15980000     0.00000000
He      3.51690000     3.71245000     0.00000000
He      4.56180000    -0.67450000     0.00000000
He      5.00705000    -1.03790000     0.00000000
He     -1.35740000    -0.42590000     0.00000000
He      1.35730000     0.42600000     0.00000000
He     -0.29170000    -1.32200000     0.00000000
He     -0.82455000    -0.87395000     0.00000000
He     -0.99470000     0.91840000     0.00000000
He     -1.17605000     0.24625000     0.00000000
He      0.99470000    -0.91830000     0.00000000
He      0.44690305    -1.42415416     0.45124377
He      0.44692671    -1.42422957    -0.45118795
He      1.17600000    -0.24615000    -0.00000000
He      0.29170000     1.32210000     0.00000000
He     -0.44692334     1.42431881    -0.45123174
He     -0.44694399     1.42438462     0.45118302
He      0.82450000     0.87405000    -0.00000000
He     -2.65660000    -0.83360000     0.00000000
He     -2.00699060    -0.62977997     0.40850042
He     -2.00701520    -0.62970156    -0.40850042
He      2.65650000     0.83360000     0.00000000
He      2.00689067     0.62982973    -0.40849144
He      2.00688857     0.62983643     0.40849144
He     -3.04310000    -2.05460000     0.00000000
He     -3.07625283    -2.64281537     0.31956408
He     -3.53243998    -2.51260001    -0.00012639
He     -3.07581727    -2.64293970    -0.31938004
He     -2.84985000    -1.44410000     0.00000000
He     -3.67150000    -0.05240000     0.00000000
He     -4.33477953     0.04372058    -0.00071636
He     -4.03416680     0.41218423    -0.31908258
He     -4.03523327     0.41087705     0.31976850
He     -3.16405000    -0.44300000     0.00000000
He      3.04320000     2.05450000     0.00000000
He      3.07641285     2.64277490    -0.31954902
He      3.53268998     2.51241001     0.00012884
He      3.07624278     2.64282349     0.31947719
He      2.84985000     1.44405000    -0.00000000
He      3.67130000     0.05230000     0.00000000
He      4.03440068    -0.41175213     0.31942323
He      4.03462600    -0.41147607    -0.31956794
He      4.33458996    -0.04395005     0.00021268
He      3.16390000     0.44295000    -0.00000000
He     -0.42217500    -2.15789000     0.00000000
He     -1.57941500     1.52989000     0.00000000
He      1.57941500    -1.52979000     0.00000000
He      0.42217500     2.15799000     0.00000000
