  71
 angstrom
O       2.21340000     1.11880000     0.00010000
N      -0.05950000     0.98160000     0.00010000
N      -2.44220000     0.92140000     0.00010000
N       1.29350000    -0.97440000     0.00000000
C      -1.24060000     0.26760000    -0.00010000
C      -1.16430000    -1.07260000    -0.00020000
C       1.20880000     0.40560000    -0.00030000
C       0.19080000    -1.64780000     0.00030000
H      -0.13310000     1.99460000     0.00030000
H      -2.02230000    -1.73170000    -0.00030000
H       0.23510000    -2.74870000     0.00050000
H      -3.30890000     0.39840000     0.00030000
H      -2.45330000     1.93320000     0.00060000
X      2.21484668     1.11944550    -0.00000342
X      1.92442027     0.46170519     0.02829264
X      1.49777974     1.06269481    -0.02849275
X      2.48108344     1.27401800    -0.36831415
X      2.44800609     1.32019676     0.36871275
X     -0.05953600     0.98210447    -0.00005568
X     -0.65005000     0.62460000     0.00000000
X      0.57465000     0.69360000    -0.00010000
X     -0.12206000     1.84264999     0.00027000
X     -0.05939087     0.98113497     1.01577011
X     -2.44265979     0.92162769     0.00022953
X     -1.84140000     0.59450000     0.00000000
X     -3.17889499     0.47685000     0.00027000
X     -2.45163500     1.78142999     0.00052500
X     -2.44239928     0.92134329    -1.01176099
X      1.29399117    -0.97459668    -0.00000976
X      1.25115000    -0.28440000    -0.00015000
X      0.76513978    -1.34857445     0.38526621
X      0.76513409    -1.34890826    -0.38493392
X      1.84866646    -1.30476940     0.00000000
X     -1.27811009     0.29042580     0.00094445
X     -1.20583079    -0.40266243    -0.40284685
X     -1.20598741    -0.40273144     0.40254547
X     -1.19038740    -1.10793499    -0.00022766
X     -0.48675000    -1.36020000     0.00005000
X     -1.89359999    -1.63283500    -0.00028500
X      1.21885330     0.39891896    -0.04253044
X      0.18123760    -1.69066738     0.00004845
X      0.22845500    -2.58356499     0.00047000
He      2.23771453     1.11772577    -0.00033513
He      2.48108344     1.27401800    -0.36831415
He      2.44800609     1.32019676     0.36871275
He     -0.06140643     1.00814059    -0.00876353
He     -0.05939087     0.98113497     1.01577011
He     -2.46644157     0.93337344     0.00755536
He     -2.44239928     0.92134329    -1.01176099
He      1.31957347    -0.98471575    -0.00059894
He      1.84866646    -1.30476940     0.00000000
He     -1.27175070     0.28663769     0.00054409
He     -0.65005000     0.62460000     0.00000000
He     -1.84140000     0.59450000     0.00000000
He     -1.18594864    -1.10200324    -0.00022280
He     -1.20598741    -0.40273144     0.40254547
He     -1.20583079    -0.40266243    -0.40284685
He      1.21812072     0.39930112    -0.03503706
He      1.49777974     1.06269481    -0.02849275
He      1.92442027     0.46170519     0.02829264
He      0.57465000     0.69360000    -0.00010000
He      1.25115000    -0.28440000    -0.00015000
He      0.18271093    -1.68340530     0.00009019
He      0.76513409    -1.34890826    -0.38493392
He      0.76513978    -1.34857445     0.38526621
He     -0.48675000    -1.36020000     0.00005000
He     -0.12206000     1.84265002     0.00027000
He     -1.89360002    -1.63283502    -0.00028500
He      0.22845500    -2.58356503     0.00047000
He     -3.17889502     0.47684999     0.00027000
He     -2.45163500     1.78143002     0.00052500
