 321
 angstrom
O       0.74390000    -1.39770000    -0.12320000
O       5.31830000     1.42760000    -1.38900000
C       0.76930000    -2.39820000     0.91230000
C      -0.68740000    -2.56720000     1.36840000
C       1.61650000    -1.95230000     2.11510000
C      -1.65250000    -2.56150000     0.18140000
C      -4.14050000    -2.69280000    -0.49290000
C      -3.09890000    -2.76390000     0.64620000
C       3.04290000    -1.62260000     1.69840000
C      -4.13320000    -1.31550000    -1.19020000
C       1.24870000    -3.72710000     0.30890000
C       3.03720000    -0.77960000     0.45790000
C      -4.41790000    -0.14280000    -0.24510000
C       1.91050000    -0.72380000    -0.37100000
C      -4.42930000     1.22200000    -0.94820000
C      -4.64410000     2.46030000    -0.04690000
C      -3.87320000    -3.83450000    -1.48080000
C      -3.62550000     2.50620000     1.11140000
C       4.18500000    -0.05890000     0.10060000
C       1.92300000     0.07040000    -1.52120000
C      -2.14830000     2.57010000     0.70120000
C       3.06580000     0.79300000    -1.86150000
C      -4.56700000     3.72090000    -0.91790000
C       4.19770000     0.72560000    -1.05290000
C      -1.13930000     2.55880000     1.85610000
C       0.34550000     2.54080000     1.44580000
C       5.41590000    -0.11140000     0.95220000
C       0.70530000     0.15380000    -2.38830000
C       3.08170000     1.64480000    -3.09090000
C       1.28340000     2.47100000     2.65120000
C       0.66670000     3.78440000     0.61310000
H      -0.80610000    -3.47790000     1.96820000
H      -0.96850000    -1.72570000     2.01610000
H       1.62240000    -2.71600000     2.90170000
H       1.17550000    -1.04460000     2.55060000
H      -1.38330000    -3.34900000    -0.52640000
H      -1.58130000    -1.60350000    -0.34010000
H      -5.13190000    -2.85360000    -0.05000000
H      -3.34720000    -2.04020000     1.43040000
H      -3.17640000    -3.74750000     1.12910000
H       3.60770000    -2.54290000     1.51140000
H       3.52160000    -1.09680000     2.53220000
H      -4.90640000    -1.32410000    -1.96980000
H      -3.18650000    -1.14880000    -1.71670000
H       1.20030000    -4.54020000     1.04080000
H       0.66380000    -4.01360000    -0.57050000
H       2.28160000    -3.65870000    -0.04850000
H      -3.64540000    -0.12450000     0.52680000
H      -5.37910000    -0.29830000     0.25880000
H      -3.49510000     1.33330000    -1.51340000
H      -5.22740000     1.20660000    -1.70280000
H      -5.64880000     2.40370000     0.39050000
H      -2.95860000    -3.67540000    -2.06020000
H      -4.69840000    -3.90640000    -2.19810000
H      -3.79880000    -4.79810000    -0.96620000
H      -3.84560000     3.39020000     1.72500000
H      -3.78180000     1.65000000     1.77760000
H      -1.91070000     1.72450000     0.04620000
H      -1.99780000     3.47980000     0.11190000
H      -5.37710000     3.72450000    -1.65540000
H      -4.67220000     4.62230000    -0.30520000
H      -3.62210000     3.78710000    -1.46640000
H      -1.33010000     3.42750000     2.49940000
H      -1.33570000     1.67250000     2.47350000
H       0.52350000     1.65470000     0.82680000
H       5.65030000    -1.14160000     1.24060000
H       6.30760000     0.26170000     0.43900000
H       5.27360000     0.49220000     1.85470000
H       0.42290000     1.19850000    -2.56000000
H      -0.17850000    -0.31670000    -1.94800000
H       0.88630000    -0.34350000    -3.34710000
H       2.97010000     2.69940000    -2.81790000
H       4.01790000     1.51400000    -3.64570000
H       2.29940000     1.40000000    -3.81350000
H       1.16480000     3.34690000     3.29790000
H       2.32920000     2.42240000     2.33010000
H       1.07580000     1.57760000     3.24930000
H       0.39420000     4.70360000     1.14250000
H       0.14540000     3.77060000    -0.34880000
H       1.73840000     3.83110000     0.38910000
H       5.10560000     2.14250000    -2.00920000
X      0.74473326    -1.39902959    -0.12295890
X      0.75660000    -1.89795000     0.39455000
X      1.32720000    -1.06075000    -0.24710000
X      0.56550340    -1.61249863    -0.57949235
X      0.36050337    -1.03636816    -0.03039466
X      5.31961464     1.42834199    -1.38949134
X      4.75800000     1.07660000    -1.22095000
X      5.13750500     2.03526500    -1.91617000
X      5.87741977     1.02479929    -1.70384792
X      5.69439471     1.74368975    -0.81225691
X      0.77441619    -2.43583768     0.93435322
X      0.04095000    -2.48270000     1.14035000
X      1.19290000    -2.17525000     1.51370000
X      1.00900000    -3.06265000     0.61060000
X     -0.70221301    -2.58931956     1.40333444
X     -1.16995000    -2.56435000     0.77490000
X     -0.78829500    -3.34129499     1.87823000
X     -0.92633500    -1.85192501     1.91894500
X      1.62022610    -1.96499120     2.15698275
X      2.32970000    -1.78745000     1.90675000
X      1.62151500    -2.60144500     2.78371000
X      1.24165000    -1.18075501     2.48527500
X     -1.66267299    -2.59677449     0.15728910
X     -2.37570000    -2.66270000     0.41380000
X     -1.42368000    -3.23087500    -0.42023000
X     -1.59198000    -1.74720001    -0.26187500
X     -4.17913886    -2.71360198    -0.49104771
X     -3.61970000    -2.72835000     0.07665000
X     -4.13685000    -2.00415000    -0.84155000
X     -4.00685000    -3.26365000    -0.98685000
X     -4.98318999    -2.82948000    -0.11643500
X     -3.12127562    -2.78760409     0.67563744
X     -3.30995500    -2.14875500     1.31277000
X     -3.16477500    -3.59995999     1.05666500
X      3.07217865    -1.63969833     1.72631994
X      3.04005000    -1.20110000     1.07815000
X      3.52298000    -2.40485499     1.53945000
X      3.44979500    -1.17567000     2.40713000
X     -4.15747392    -1.31994678    -1.22653343
X     -4.27555000    -0.72915000    -0.71765000
X     -4.79042000    -1.32281000    -1.85286000
X     -3.32850501    -1.17380500    -1.63772500
X      1.26033599    -3.76894997     0.30239625
X      1.20756000    -4.41823500     0.93101500
X      0.75153500    -3.97062500    -0.43858999
X      2.12666499    -3.66896000     0.00511000
X      3.06827188    -0.80142403     0.47997635
X      2.47385000    -0.75170000     0.04345000
X      3.47375442    -0.09037910     0.50139386
X      3.75222940    -0.75088543     0.06368515
X     -4.45785637    -0.14693320    -0.22733710
X     -4.42360000     0.53960000    -0.59665000
X     -3.76127500    -0.12724500     0.41101500
X     -5.23491999    -0.27497500     0.18321500
X      1.93873262    -0.75378766    -0.38625696
X      1.78126811    -0.00674602    -0.72664780
X      2.06261008    -0.64359488    -1.16332714
X     -4.45597607     1.22971286    -0.98222961
X     -4.53670000     1.84115000    -0.49755000
X     -3.63523001     1.31660500    -1.42862000
X     -5.10768500     1.20891000    -1.58961000
X     -4.68446633     2.47627051    -0.04022038
X     -4.13480000     2.48325000     0.53225000
X     -4.60555000     3.09060000    -0.48240000
X     -5.49809499     2.41219000     0.32489000
X     -3.88659461    -3.86928734    -1.50402800
X     -3.09579001    -3.69926500    -1.97329000
X     -4.57462000    -3.89561500    -2.09050500
X     -3.80996000    -4.65355999    -1.04339000
X     -3.64901745     2.52356652     1.14417878
X     -2.88690000     2.53815000     0.90630000
X     -3.81258500     3.25759999     1.63296000
X     -3.75835500     1.77843001     1.67767000
X      4.22799649    -0.05920974     0.10956217
X      4.19135000     0.33335000    -0.47615000
X      4.80045000    -0.08515000     0.52640000
X      1.92138860     0.07507166    -1.56484280
X      2.49440000     0.43170000    -1.69135000
X      1.31415000     0.11210000    -1.95475000
X     -2.15631314     2.61039170     0.68566026
X     -1.64380000     2.56445000     1.27865000
X     -1.94634000     1.85134001     0.14445000
X     -2.02037500     3.34334499     0.20029500
X      3.07824688     0.80816269    -1.90079737
X      3.49364275     1.08615845    -1.23662882
X      3.77293246     0.43648212    -1.68173915
X      3.07375000     1.21890000    -2.47620000
X     -4.58459673     3.75659444    -0.93648431
X     -5.25558500     3.72396000    -1.54477500
X     -4.65642000     4.48708999    -0.39710500
X     -3.76383501     3.77717000    -1.38412500
X      4.23934247     0.73449161    -1.06366841
X     -1.15209619     2.57719073     1.89387768
X     -0.39690000     2.54980000     1.65095000
X     -1.30148000     3.29719499     2.40290500
X     -1.30624000     1.80544501     2.38089000
X      0.36253836     2.57346419     1.46971359
X      0.81445000     2.50590000     2.04850000
X      0.50610000     3.16260000     1.02945000
X      0.49680000     1.78761501     0.91965000
X      5.45554539    -0.11260374     0.97106555
X      5.61514000    -0.98706999     1.19734000
X      6.17384499     0.20573500     0.51598000
X      5.29494500     0.40166000     1.71932499
X      0.68683011     0.15780309    -2.42794787
X      0.46526000     1.04179499    -2.53424500
X     -0.04592999    -0.24612500    -2.01404500
X      0.85915000    -0.26890500    -3.20327999
X      3.09031729     1.66645068    -3.12813044
X      2.98684000     2.54120999    -2.85885000
X      3.87746999     1.53362000    -3.56248000
X      2.41674500     1.43672000    -3.70511000
X      1.30251924     2.48577306     2.68787869
X      1.18259000     3.21551499     3.20089500
X      2.17232999     2.42969000     2.37826500
X      1.10694000     1.71161001     3.15958500
X      0.67668933     3.82624492     0.60424953
X      0.43507500     4.56571999     1.06309000
X      0.22359500     3.77267000    -0.20451499
X      1.57764499     3.82409500     0.42270000
He      0.75623452    -1.41834279    -0.11942183
He      0.56550340    -1.61249863    -0.57949235
He      0.36050337    -1.03636816    -0.03039466
He      5.33838464     1.43901572    -1.39666997
He      5.87741977     1.02479929    -1.70384792
He      5.69439471     1.74368975    -0.81225691
He      0.77346580    -2.42947793     0.93067260
He      0.75660000    -1.89795000     0.39455000
He     -0.69979404    -2.58556769     1.39742121
He      0.04095000    -2.48270000     1.14035000
He      1.61958150    -1.96282002     2.14992884
He      1.19290000    -2.17525000     1.51370000
He     -1.66134234    -2.59065986     0.16128209
He     -1.16995000    -2.56435000     0.77490000
He     -4.17258485    -2.71016993    -0.49146383
He     -3.11754041    -2.78358844     0.67065639
He     -2.37570000    -2.66270000     0.41380000
He     -3.61970000    -2.72835000     0.07665000
He      3.06724205    -1.63679768     1.72161864
He      2.32970000    -1.78745000     1.90675000
He     -4.15330638    -1.31918861    -1.22045462
He     -4.13685000    -2.00415000    -0.84155000
He      1.25837121    -3.76189022     0.30348494
He      1.00900000    -3.06265000     0.61060000
He      3.06298622    -0.79743909     0.47660969
He      3.04005000    -1.20110000     1.07815000
He     -4.45107697    -0.14619894    -0.23023559
He     -4.27555000    -0.72915000    -0.71765000
He      1.93461806    -0.74823590    -0.38342661
He      1.32720000    -1.06075000    -0.24710000
He      2.47385000    -0.75170000     0.04345000
He     -4.45141606     1.22848278    -0.97652081
He     -4.42360000     0.53960000    -0.59665000
He     -4.67763948     2.47366870    -0.04145977
He     -4.53670000     1.84115000    -0.49755000
He     -3.88427906    -3.86342373    -1.50013616
He     -4.00685000    -3.26365000    -0.98685000
He     -3.64510660     2.52059768     1.13863055
He     -4.13480000     2.48325000     0.53225000
He      4.22071532    -0.05897495     0.10819112
He      3.75222940    -0.75088543     0.06368515
He      3.47375442    -0.09037910     0.50139386
He      1.92139361     0.07473621    -1.55741922
He      2.06261008    -0.64359488    -1.16332714
He      1.78126811    -0.00674602    -0.72664780
He     -2.15509051     2.60349008     0.68807727
He     -2.88690000     2.53815000     0.90630000
He      3.07603834     0.80594999    -1.89406822
He      2.49440000     0.43170000    -1.69135000
He     -4.58157575     3.75058509    -0.93337765
He     -4.60555000     3.09060000    -0.48240000
He      4.23221001     0.73363823    -1.06171254
He      3.77293246     0.43648212    -1.68173915
He      3.49364275     1.08615845    -1.23662882
He      4.75800000     1.07660000    -1.22095000
He      4.19135000     0.33335000    -0.47615000
He     -1.14997466     2.57406096     1.88750652
He     -1.64380000     2.56445000     1.27865000
He      0.36035388     2.56769837     1.46552447
He     -0.39690000     2.54980000     1.65095000
He      5.44885931    -0.11239565     0.96788143
He      4.80045000    -0.08515000     0.52640000
He      0.68986262     0.15712255    -2.42122207
He      1.31415000     0.11210000    -1.95475000
He      3.08883195     1.66279748    -3.12185869
He      3.07375000     1.21890000    -2.47620000
He      1.29932494     2.48324497     2.68169052
He      0.81445000     2.50590000     2.04850000
He      0.67500240     3.81917698     0.60569413
He      0.50610000     3.16260000     1.02945000
He     -0.78829500    -3.34129502     1.87823001
He     -0.92633501    -1.85192498     1.91894502
He      1.62151500    -2.60144502     2.78371002
He      1.24164999    -1.18075498     2.48527501
He     -1.42367999    -3.23087502    -0.42023002
He     -1.59198000    -1.74719998    -0.26187501
He     -4.98319002    -2.82948000    -0.11643499
He     -3.30995501    -2.14875498     1.31277002
He     -3.16477500    -3.59996002     1.05666501
He      3.52298001    -2.40485502     1.53945000
He      3.44979501    -1.17566999     2.40713002
He     -4.79042002    -1.32281000    -1.85286002
He     -3.32850498    -1.17380500    -1.63772501
He      1.20756000    -4.41823502     0.93101502
He      0.75153499    -3.97062501    -0.43859002
He      2.12666502    -3.66896000     0.00510999
He     -3.76127498    -0.12724500     0.41101502
He     -5.23492002    -0.27497500     0.18321501
He     -3.63522998     1.31660500    -1.42862001
He     -5.10768502     1.20891000    -1.58961002
He     -5.49809502     2.41219000     0.32489001
He     -3.09578998    -3.69926500    -1.97329001
He     -4.57462002    -3.89561500    -2.09050502
He     -3.80996000    -4.65356002    -1.04338999
He     -3.81258501     3.25760002     1.63296001
He     -3.75835500     1.77842998     1.67767002
He     -1.94633999     1.85133998     0.14444998
He     -2.02037500     3.34334502     0.20029499
He     -5.25558502     3.72396000    -1.54477502
He     -4.65642000     4.48709002    -0.39710499
He     -3.76383498     3.77717000    -1.38412501
He     -1.30148000     3.29719502     2.40290502
He     -1.30624000     1.80544498     2.38089001
He      0.49680000     1.78761498     0.91964999
He      5.61514001    -0.98707002     1.19734001
He      6.17384502     0.20573501     0.51597999
He      5.29494500     0.40166001     1.71932502
He      0.46525999     1.04179502    -2.53424500
He     -0.04593002    -0.24612501    -2.01404499
He      0.85915000    -0.26890501    -3.20328002
He      2.98684000     2.54121003    -2.85884999
He      3.87747002     1.53362000    -3.56248001
He      2.41674498     1.43671999    -3.70511002
He      1.18259000     3.21551502     3.20089502
He      2.17233002     2.42969000     2.37826499
He      1.10694000     1.71160998     3.15958501
He      0.43507499     4.56572002     1.06309001
He      0.22359499     3.77267000    -0.20451502
He      1.57764503     3.82409500     0.42269999
He      5.13750499     2.03526502    -1.91617001
