 106
 angstrom
O       3.11580000    -0.04110000    -0.00060000
O       1.77280000     2.38030000    -0.00040000
O       1.67700000    -2.40760000    -0.00080000
O      -3.03620000    -1.17640000    -0.00080000
O      -3.18630000     1.09170000    -0.00040000
C      -1.03660000     0.04170000     0.00050000
C       1.75260000    -0.01420000     0.00040000
C       1.07930000     1.20750000     0.00010000
C       1.03120000    -1.20810000     0.00080000
C      -0.31530000     1.23540000     0.00020000
C      -0.36350000    -1.18010000     0.00080000
C      -2.49080000     0.07080000     0.00020000
H      -0.83420000     2.19120000    -0.00010000
H      -0.89190000    -2.12990000     0.00070000
H       3.44100000     0.87600000    -0.00100000
H       1.14310000     3.12160000    -0.00060000
H       2.63530000    -2.23900000    -0.00110000
H      -4.01670000    -1.14600000    -0.00160000
X      3.11738680    -0.04114830    -0.00060057
X      2.43420000    -0.02765000    -0.00010000
X      3.39222000     0.73843499    -0.00094000
X      3.49583880    -0.34670827     0.58227131
X      3.49490286    -0.34699618    -0.58392960
X      1.77337032     2.38178155    -0.00040037
X      1.42605000     1.79390000    -0.00015000
X      1.23755500     3.01040500    -0.00057000
X      2.24486528     2.50172570     0.58226575
X      2.24469717     2.50143088    -0.58326325
X      1.67763895    -2.40905327    -0.00080093
X      1.35410000    -1.80785000     0.00000000
X      2.49155499    -2.26429000    -0.00105500
X      1.60817197    -2.89036447    -0.58366174
X      1.60861648    -2.89157280     0.58111122
X     -3.03737934    -1.17746273    -0.00079822
X     -2.76350000    -0.55280000    -0.00030000
X     -3.86962499    -1.15056000    -0.00148000
X     -2.83178996    -1.62484344    -0.58741838
X     -2.83287801    -1.62539764     0.58577258
X     -3.18786704     1.09195421    -0.00040458
X     -3.14239274     0.37422630    -0.04654302
X     -2.53470727     0.78827369     0.04634314
X     -3.32168387     1.37293145    -0.36821598
X     -3.39861833     1.32095112     0.36712329
X     -1.07886716     0.02976085     0.00025682
X     -0.67779688     0.63977114     0.41875474
X     -0.67757344     0.63942582    -0.41805653
X     -0.70005000    -0.56920000     0.00065000
X     -1.76370000     0.05625000     0.00035000
X      1.79465912    -0.02685365     0.00057604
X      1.41529789     0.59639105     0.40928914
X      1.41480776     0.59592005    -0.40878749
X      1.39190000    -0.61115000     0.00060000
X      1.08431604     1.25113432     0.00011874
X      0.38200000     1.22145000     0.00015000
X      1.05406794    -1.24559783     0.00109158
X      0.33388787    -1.19221357    -0.40788557
X      0.33387855    -1.19267791     0.40948745
X     -0.32952768     1.27695343     0.00018591
X     -0.75636500     2.04782999    -0.00005500
X     -0.38615206    -1.21772975     0.00082888
X     -0.81264000    -1.98742999     0.00071500
X     -2.52359922     0.04425757     0.01239942
He      3.14013630    -0.04163306    -0.00060882
He      3.49583880    -0.34670827     0.58227131
He      3.49490286    -0.34699618    -0.58392960
He      1.78125039     2.40312829    -0.00040537
He      2.24486528     2.50172570     0.58226575
He      2.24469717     2.50143088    -0.58326325
He      1.68691087    -2.42983318    -0.00081306
He      1.60817197    -2.89036447    -0.58366174
He      1.60861648    -2.89157280     0.58111122
He     -3.05458304    -1.19235629    -0.00077339
He     -2.83178996    -1.62484344    -0.58741838
He     -2.83287801    -1.62539764     0.58577258
He     -3.21053019     1.08966586    -0.00154026
He     -3.32168387     1.37293145    -0.36821598
He     -3.39861833     1.32095112     0.36712329
He     -1.07190020     0.03236792     0.00034786
He      1.78769163    -0.02428844     0.00052484
He      2.43420000    -0.02765000    -0.00010000
He      1.08397462     1.24371274     0.00011316
He      1.41480776     0.59592005    -0.40878749
He      1.41529789     0.59639105     0.40928914
He      1.42605000     1.79390000    -0.00015000
He      1.05010486    -1.23933747     0.00100436
He      1.35410000    -1.80785000     0.00000000
He      1.39190000    -0.61115000     0.00060000
He     -0.32709994     1.26995396     0.00018940
He     -0.67757344     0.63942582    -0.41805653
He     -0.67779688     0.63977114     0.41875474
He      0.38200000     1.22145000     0.00015000
He     -0.38235224    -1.21136991     0.00082402
He      0.33387855    -1.19267791     0.40948745
He      0.33388787    -1.19221357    -0.40788557
He     -0.70005000    -0.56920000     0.00065000
He     -2.51859403     0.04747440     0.00427715
He     -2.53470727     0.78827369     0.04634314
He     -3.14239274     0.37422630    -0.04654302
He     -2.76350000    -0.55280000    -0.00030000
He     -1.76370000     0.05625000     0.00035000
He     -0.75636501     2.04783002    -0.00005500
He     -0.81264001    -1.98743002     0.00071500
He      3.39222001     0.73843502    -0.00094000
He      1.23755498     3.01040502    -0.00057000
He      2.49155502    -2.26429000    -0.00105500
He     -3.86962502    -1.15056000    -0.00148000
