 154
 angstrom
P      -3.57640000     0.14930000    -0.31270000
O      -1.97460000     0.33280000    -0.42600000
O       3.25710000    -1.39030000    -0.49570000
O      -4.00930000     1.22770000     0.81200000
O      -3.71950000    -1.26660000     0.45510000
O       1.25330000    -2.95950000     0.36020000
O      -4.32100000     0.24370000    -1.61240000
N       2.07550000     1.99810000     0.15450000
C       0.23910000     0.45100000     0.43540000
C       1.07690000    -0.61250000     0.11840000
C      -1.20070000     0.25590000     0.76550000
C       2.41340000    -0.37220000    -0.18070000
C       2.85940000     0.93920000    -0.14900000
C       0.78240000     1.72570000     0.43960000
C       4.28520000     1.25360000    -0.46330000
C       0.55910000    -1.97590000     0.09920000
H      -1.38120000    -0.68850000     1.28820000
H      -1.52810000     1.04640000     1.45140000
H       0.18040000     2.59760000     0.67670000
H       4.53520000     0.94630000    -1.48390000
H       4.46880000     2.33150000    -0.39280000
H       4.95750000     0.76120000     0.24670000
H      -0.50650000    -2.11220000    -0.14580000
H       4.15210000    -1.06480000    -0.67770000
H      -4.96190000     1.34750000     1.01280000
H      -4.61220000    -1.65680000     0.56890000
X     -3.57608073     0.14890179    -0.31256026
X     -3.43919395     0.11383619    -0.09177408
X     -3.83242773     0.12087059    -0.26237096
X     -3.53246983     0.39100213    -0.40512113
X     -3.50225572    -0.02758240    -0.49188339
X     -2.77550000     0.24105000    -0.36935000
X     -3.79285000     0.68850000     0.24965000
X     -3.64795000    -0.55865000     0.07120000
X     -4.25116091    -0.10054089    -0.81084443
X     -3.65639153     0.50679423    -1.10747660
X     -1.97598413     0.33344352    -0.42643626
X     -1.58765000     0.29435000     0.16975000
X     -1.73505543    -0.02871080    -0.77336966
X     -1.81672583     0.81272747    -0.65726329
X      3.25837417    -1.39115466    -0.49610780
X      2.83525000    -0.88125000    -0.33820000
X      4.01784999    -1.11362500    -0.65040000
X      3.34305029    -1.93270907     0.02570724
X      3.07058226    -1.81117368    -1.09697951
X     -4.01023667     1.22867241     0.81283506
X     -4.81900999     1.32953000     0.98268000
X     -3.86510671     1.97386555     0.71536588
X     -3.79034514     1.13794698     1.54062614
X     -3.72026909    -1.26787733     0.45564514
X     -4.47829499    -1.59827000     0.55183000
X     -3.39710058    -1.89854897     0.16597684
X     -3.51646340    -1.33229786     1.19086696
X      1.25277085    -2.96099320     0.36030296
X      1.16337921    -2.24705549     0.37717945
X      0.64902088    -2.68834450     0.08222036
X      1.59163878    -3.17653635     0.09592476
X      1.27200491    -3.22581003     0.76038546
X     -4.32202298     0.24379628    -1.61361017
X     -4.76076800     0.59854978    -1.76796750
X     -4.25343429    -0.06385003    -2.10673123
X      2.07562326     1.99861253     0.15454636
X      2.41267993     1.54137936    -0.39246376
X      2.60143651     1.45816534     0.38539987
X      1.42895000     1.86190000     0.29705000
X      2.31695596     2.62938499     0.16322504
X      0.22378861     0.45626896     0.47622786
X      0.65800000    -0.08075000     0.27690000
X     -0.48080000     0.35345000     0.60045000
X      0.60352823     1.04747793     0.84064566
X      0.40817458     1.13338849     0.03718192
X      1.06990050    -0.65421617     0.13022721
X      1.64757032    -0.45192851    -0.43470053
X      1.84347721    -0.53782519     0.37168060
X      0.81800000    -1.29420000     0.10880000
X     -1.20652033     0.25588083     0.80903434
X     -1.35412500    -0.54683999     1.20979500
X     -1.47899000     0.92782500     1.34851500
X      2.45570546    -0.37997832    -0.18958035
X      2.63640000     0.28350000    -0.16485000
X      2.90174344     0.94854493    -0.15598719
X      3.57230000     1.09640000    -0.30615000
X      0.77205896     1.76694928     0.45058520
X      0.27070000     2.46681499     0.64113500
X      4.32622416     1.26716144    -0.47118802
X      4.49770000     0.99239500    -1.33080999
X      4.44126000     2.16981499    -0.40337500
X      4.85665500     0.83506000     0.14020000
X      0.52012870    -1.99255382     0.08766730
X     -0.34665999    -2.09175500    -0.10905000
He     -3.57604962     0.14890516    -0.31266307
He     -3.53192593     0.39397740    -0.40609850
He     -3.50131296    -0.02980776    -0.49394735
He     -3.43773919     0.11347460    -0.08896361
He     -3.83550985     0.12056990    -0.26166156
He     -1.99513909     0.34218146    -0.43509253
He     -2.77550000     0.24105000    -0.36935000
He     -1.73505543    -0.02871080    -0.77336966
He     -1.81672583     0.81272747    -0.65726329
He      3.27684436    -1.40308381    -0.50196692
He      3.34305029    -1.93270907     0.02570724
He      3.07058226    -1.81117368    -1.09697951
He     -4.02399948     1.24244684     0.82460936
He     -3.79285000     0.68850000     0.24965000
He     -3.86510671     1.97386555     0.71536588
He     -3.79034514     1.13794698     1.54062614
He     -3.73169734    -1.28600353     0.46330169
He     -3.64795000    -0.55865000     0.07120000
He     -3.39710058    -1.89854897     0.16597684
He     -3.51646340    -1.33229786     1.19086696
He      1.24244607    -2.98125266     0.35895349
He      1.59163878    -3.17653635     0.09592476
He      1.27200491    -3.22581003     0.76038546
He     -4.33704581     0.24484978    -1.63066883
He     -3.65639153     0.50679423    -1.10747660
He     -4.25116091    -0.10054089    -0.81084443
He     -4.76076800     0.59854978    -1.76796750
He     -4.25343429    -0.06385003    -2.10673123
He      2.08180229     2.02529849     0.15716883
He      2.31695596     2.62938499     0.16322504
He      0.22501109     0.45585838     0.46873337
He      1.07067108    -0.64755329     0.12650445
He      0.65800000    -0.08075000     0.27690000
He     -1.20553854     0.25581886     0.80169111
He     -1.58765000     0.29435000     0.16975000
He     -0.48080000     0.35345000     0.60045000
He      2.44843120    -0.37926385    -0.18819211
He      1.84347721    -0.53782519     0.37168060
He      1.64757032    -0.45192851    -0.43470053
He      2.83525000    -0.88125000    -0.33820000
He      2.89456775     0.94709178    -0.15484498
He      2.60143651     1.45816534     0.38539987
He      2.41267993     1.54137936    -0.39246376
He      2.63640000     0.28350000    -0.16485000
He      0.77390624     1.76003002     0.44868407
He      0.40817458     1.13338849     0.03718192
He      0.60352823     1.04747793     0.84064566
He      1.42895000     1.86190000     0.29705000
He      4.31931358     1.26484291    -0.46986316
He      3.57230000     1.09640000    -0.30615000
He      0.52671820    -1.98983933     0.08969584
He      0.64902088    -2.68834450     0.08222036
He      1.16337921    -2.24705549     0.37717945
He      0.81800000    -1.29420000     0.10880000
He     -1.35412500    -0.54684002     1.20979501
He     -1.47899001     0.92782502     1.34851502
He      0.27069999     2.46681502     0.64113501
He      4.49770001     0.99239499    -1.33081002
He      4.44126000     2.16981503    -0.40337500
He      4.85665502     0.83505999     0.14020002
He     -0.34666003    -2.09175500    -0.10905001
He      4.01785002    -1.11362499    -0.65040000
He     -4.81901002     1.32953000     0.98268000
He     -4.47829502    -1.59827001     0.55183000
