420              
angstrom
C      17.12980000    -7.72520000     0.93830000
C      16.92100000    -8.05350000    -0.33360000
C      17.58410000    -9.07160000    -0.87480000
C      18.00040000    -8.41420000     1.66790000
C      17.08510000    -6.39920000     1.03220000
C      16.74740000    -6.92960000    -1.02580000
C      18.07270000    -8.96760000    -2.10870000
C      18.45470000    -9.76050000    -0.14510000
C      18.82760000    -7.77810000     2.49260000
C      18.66350000    -9.43220000     1.12680000
C      17.91240000    -5.76310000     1.85690000
C      16.84880000    -5.90810000    -0.18240000
C      17.23550000    -6.82520000    -2.25860000
C      19.24620000    -9.59290000    -2.14070000
C      17.89900000    -7.84450000    -2.79990000
C      19.48270000   -10.08320000    -0.92710000
C      18.78300000    -6.45200000     2.58660000
C      20.00230000    -8.40350000     2.46080000
C      19.90100000    -9.42490000     1.61740000
C      18.50270000    -4.63480000     1.46860000
C      17.43830000    -4.78090000    -0.57070000
C      17.82490000    -5.69790000    -2.64690000
C      20.24450000    -9.09600000    -2.86260000
C      18.89740000    -7.34750000    -3.52180000
C      20.71900000   -10.07580000    -0.43650000
C      19.91260000    -5.75050000     2.65040000
C      21.13120000    -7.70300000     2.52450000
C      20.92830000    -9.74730000     0.83650000
C      19.73890000    -4.62730000     1.95930000
C      18.26620000    -4.14460000     0.25510000
C      17.92630000    -4.67640000    -1.80360000
C      18.85220000    -6.02030000    -3.42780000
C      20.07090000    -7.97280000    -3.55370000
C      21.48080000    -9.08840000    -2.37190000
C      21.71730000    -9.57870000    -1.15840000
C      21.08600000    -6.37580000     2.61850000
C      22.15850000    -8.02540000     1.74370000
C      22.05720000    -9.04680000     0.90030000
C      20.73730000    -4.13030000     1.23740000
C      19.26450000    -3.64750000    -0.46680000
C      19.05510000    -3.97600000    -1.73980000
C      19.98110000    -5.31970000    -3.36410000
C      21.20050000    -7.27130000    -3.48990000
C      22.07110000    -7.96020000    -2.76020000
C      22.54510000    -8.94240000    -0.33260000
C      22.08440000    -5.87880000     1.89660000
C      22.74800000    -6.89810000     1.35540000
C      21.91080000    -4.75570000     1.20550000
C      20.50080000    -3.64010000     0.02380000
C      20.08240000    -4.29830000    -2.52060000
C      21.15590000    -5.94520000    -3.39590000
C      22.89840000    -7.32400000    -1.93550000
C      23.13470000    -7.81520000    -0.72090000
C      23.23610000    -6.79370000     0.12250000
C      22.39940000    -4.65170000    -0.02850000
C      21.52880000    -3.96280000    -0.75820000
C      21.32000000    -4.29110000    -2.03010000
C      21.98310000    -5.30910000    -2.57120000
C      22.85370000    -5.99800000    -1.84160000
C      23.06240000    -5.66980000    -0.56970000
X     17.12980000    -7.72520000     0.93830000
X     17.02540000    -7.88935000     0.30235000
X     17.33444379    -8.02087113     1.62444373
X     17.30021112    -8.36518308     1.34014005
X     17.10745000    -7.06220000     0.98525000
X     16.92100000    -8.05350000    -0.33360000
X     17.01220035    -8.81929622    -0.41569765
X     16.93260205    -8.65384587    -0.82446822
X     16.83420000    -7.49155000    -0.67970000
X     17.58410000    -9.07160000    -0.87480000
X     17.82840000    -9.01960000    -1.49175000
X     18.01940000    -9.41605000    -0.50995000
X     18.00040000    -8.41420000     1.66790000
X     18.41400000    -8.09615000     2.08025000
X     18.33195000    -8.92320000     1.39735000
X     17.08510000    -6.39920000     1.03220000
X     17.27310674    -6.19023191     1.75504069
X     17.21455084    -5.81199625     1.52204396
X     16.96695000    -6.15365000     0.42490000
X     16.74740000    -6.92960000    -1.02580000
X     16.79810000    -6.41885000    -0.60410000
X     16.67730046    -6.65602297    -1.74783322
X     16.69260875    -7.10251290    -1.77958336
X     18.07270000    -8.96760000    -2.10870000
X     18.65945000    -9.28025000    -2.12470000
X     17.60749542    -8.50958284    -2.52744459
X     17.95344048    -8.61812425    -2.79074540
X     18.45470000    -9.76050000    -0.14510000
X     18.61060886    -9.98098819     0.58167606
X     18.21536854    -9.77072883     0.59228855
X     18.96870000    -9.92185000    -0.53610000
X     18.82760000    -7.77810000     2.49260000
X     18.89240640    -7.13966684     2.92820992
X     18.47586514    -7.14197347     2.76311506
X     19.41495000    -8.09080000     2.47670000
X     18.66350000    -9.43220000     1.12680000
X     19.28225000    -9.42855000     1.37210000
X     17.91240000    -5.76310000     1.85690000
X     18.34770000    -6.10755000     2.22175000
X     18.20755000    -5.19895000     1.66275000
X     16.84880000    -5.90810000    -0.18240000
X     16.81732533    -5.24492384    -0.58274931
X     16.88787952    -5.13429935    -0.15450409
X     17.23550000    -6.82520000    -2.25860000
X     17.56725000    -7.33485000    -2.52925000
X     17.53020000    -6.26155000    -2.45275000
X     19.24620000    -9.59290000    -2.14070000
X     19.36445000    -9.83805000    -1.53390000
X     19.57347777    -9.48185984    -2.83391069
X     19.86691445    -9.71403807    -2.58793691
X     17.89900000    -7.84450000    -2.79990000
X     18.39820000    -7.59600000    -3.16085000
X     19.48270000   -10.08320000    -0.92710000
X     20.19435461   -10.39119346    -0.91272789
X     20.02975972   -10.42616376    -0.49742532
X     18.78300000    -6.45200000     2.58660000
X     19.34780000    -6.10125000     2.61850000
X     20.00230000    -8.40350000     2.46080000
X     19.95165000    -8.91420000     2.03910000
X     20.73680664    -8.34637987     2.70239153
X     20.51371091    -8.00340612     2.88448968
X     19.90100000    -9.42490000     1.61740000
X     20.31839080    -9.97147713     1.25942344
X     20.59681170    -9.75737432     1.53730159
X     18.50270000    -4.63480000     1.46860000
X     19.12080000    -4.63105000     1.71395000
X     18.40995860    -4.01880899     1.00670207
X     18.02978559    -4.25499607     0.98538523
X     17.43830000    -4.78090000    -0.57070000
X     17.85225000    -4.46275000    -0.15780000
X     17.68230000    -4.72865000    -1.18715000
X     17.82490000    -5.69790000    -2.64690000
X     17.82778375    -4.93244062    -2.52803319
X     17.49127304    -5.09995060    -2.28466354
X     18.33855000    -5.85910000    -3.03735000
X     20.24450000    -9.09600000    -2.86260000
X     20.15770000    -8.53440000    -3.20815000
X     20.86265000    -9.09220000    -2.61725000
X     18.89740000    -7.34750000    -3.52180000
X     18.87480000    -6.68390000    -3.47480000
X     19.53161602    -7.55165638    -3.91830448
X     19.33292071    -7.93120769    -3.78775607
X     20.71900000   -10.07580000    -0.43650000
X     20.82365000    -9.91155000     0.20000000
X     21.21815000    -9.82725000    -0.79745000
X     19.91260000    -5.75050000     2.65040000
X     19.82575000    -5.18890000     2.30485000
X     20.45185533    -6.17162016     3.01547874
X     20.65066469    -5.79188273     2.88485461
X     21.13120000    -7.70300000     2.52450000
X     21.10860000    -7.03940000     2.57150000
X     21.64485000    -7.86420000     2.13410000
X     20.92830000    -9.74730000     0.83650000
X     21.49275000    -9.39705000     0.86840000
X     19.73890000    -4.62730000     1.95930000
X     20.11664224    -4.00918697     1.68483600
X     20.41005349    -4.24153245     1.93066796
X     18.26620000    -4.14460000     0.25510000
X     18.76535000    -3.89605000    -0.10585000
X     17.92630000    -4.67640000    -1.80360000
X     18.49070000    -4.32620000    -1.77170000
X     18.85220000    -6.02030000    -3.42780000
X     19.24643122    -5.37661257    -3.60611101
X     19.46969133    -5.71979551    -3.78828314
X     20.07090000    -7.97280000    -3.55370000
X     20.63570000    -7.62205000    -3.52180000
X     21.48080000    -9.08840000    -2.37190000
X     21.95372614    -9.46824635    -1.88869555
X     21.57363736    -9.70444035    -1.91005107
X     21.77595000    -8.52430000    -2.56605000
X     21.71730000    -9.57870000    -1.15840000
X     22.13120000    -9.26055000    -0.74550000
X     21.08600000    -6.37580000     2.61850000
X     21.58520000    -6.12730000     2.25755000
X     22.15850000    -8.02540000     1.74370000
X     22.15553758    -8.79083713     1.62477182
X     22.49213296    -8.62337728     1.38154132
X     22.45325000    -7.46175000     1.54955000
X     22.05720000    -9.04680000     0.90030000
X     22.30115000    -8.99460000     0.28385000
X     20.73730000    -4.13030000     1.23740000
X     21.32405000    -4.44300000     1.22145000
X     20.61905000    -3.88520000     0.63060000
X     19.26450000    -3.64750000    -0.46680000
X     19.15980000    -3.81175000    -1.10330000
X     19.95370383    -3.29763451    -0.40577532
X     19.78921395    -3.33258457     0.00926231
X     19.05510000    -3.97600000    -1.73980000
X     19.66501835    -3.75132194    -2.16280234
X     19.38648814    -3.96549435    -2.44085858
X     19.98110000    -5.31970000    -3.36410000
X     20.03175000    -4.80900000    -2.94235000
X     20.56850000    -5.63245000    -3.38000000
X     21.20050000    -7.27130000    -3.48990000
X     21.63580000    -7.61575000    -3.12505000
X     21.50732889    -6.58136201    -3.66605976
X     21.09098257    -6.58367154    -3.83102123
X     22.07110000    -7.96020000    -2.76020000
X     22.76854628    -7.91108005    -2.42504117
X     22.71009400    -7.53309855    -2.65799164
X     22.54510000    -8.94240000    -0.33260000
X     23.16654243    -8.47859310    -0.32046210
X     23.09602429    -8.58926708    -0.74881441
X     22.08440000    -5.87880000     1.89660000
X     22.41620000    -6.38845000     1.62600000
X     21.99760000    -5.31725000     1.55105000
X     22.90735426    -5.24232161     2.72279169
X     22.74800000    -6.89810000     1.35540000
X     22.99205000    -6.84590000     0.73895000
X     23.98437302    -6.89228177     1.84574716
X     21.91080000    -4.75570000     1.20550000
X     22.15510000    -4.70370000     0.58850000
X     22.73699589    -4.11953078     2.03121113
X     20.50080000    -3.64010000     0.02380000
X     21.01480000    -3.80145000    -0.36720000
X     20.08240000    -4.29830000    -2.52060000
X     20.70120000    -4.29470000    -2.27535000
X     21.15590000    -5.94520000    -3.39590000
X     21.56950000    -5.62715000    -2.98355000
X     22.89840000    -7.32400000    -1.93550000
X     23.01655000    -7.56960000    -1.32820000
X     22.87605000    -6.66100000    -1.88855000
X     23.13470000    -7.81520000    -0.72090000
X     23.18540000    -7.30445000    -0.29920000
X     23.23610000    -6.79370000     0.12250000
X     23.14925000    -6.23175000    -0.22360000
X     24.47106631    -6.79046372     0.61231172
X     22.39940000    -4.65170000    -0.02850000
X     21.96410000    -4.30725000    -0.39335000
X     22.73090000    -5.16075000    -0.29910000
X     23.52624954    -3.95053479     0.03122529
X     21.52880000    -3.96280000    -0.75820000
X     21.42440000    -4.12695000    -1.39415000
X     22.12142485    -2.83888422    -1.14627056
X     21.32000000    -4.29110000    -2.03010000
X     21.65155000    -4.80010000    -2.30065000
X     21.91104921    -3.16476094    -2.41847606
X     21.98310000    -5.30910000    -2.57120000
X     22.41840000    -5.65355000    -2.20640000
X     22.98351079    -4.81349550    -3.29119873
X     22.85370000    -5.99800000    -1.84160000
X     22.95805000    -5.83390000    -1.20565000
X     23.84990979    -5.49941088    -2.56535319
X     23.06240000    -5.66980000    -0.56970000
X     24.19066398    -4.96827197    -0.50746767
He     17.12980000    -7.72520000     0.93830000
He     16.92100000    -8.05350000    -0.33360000
He     17.02540000    -7.88935000     0.30235000
He     17.58410000    -9.07160000    -0.87480000
He     16.93260205    -8.65384587    -0.82446822
He     17.01220035    -8.81929622    -0.41569765
He     18.00040000    -8.41420000     1.66790000
He     17.30021112    -8.36518308     1.34014005
He     17.33444379    -8.02087113     1.62444373
He     17.08510000    -6.39920000     1.03220000
He     17.10745000    -7.06220000     0.98525000
He     16.74740000    -6.92960000    -1.02580000
He     16.83420000    -7.49155000    -0.67970000
He     18.07270000    -8.96760000    -2.10870000
He     17.82840000    -9.01960000    -1.49175000
He     18.45470000    -9.76050000    -0.14510000
He     18.01940000    -9.41605000    -0.50995000
He     18.82760000    -7.77810000     2.49260000
He     18.41400000    -8.09615000     2.08025000
He     18.66350000    -9.43220000     1.12680000
He     18.21536854    -9.77072883     0.59228855
He     18.61060886    -9.98098819     0.58167606
He     18.33195000    -8.92320000     1.39735000
He     17.91240000    -5.76310000     1.85690000
He     17.21455084    -5.81199625     1.52204396
He     17.27310674    -6.19023191     1.75504069
He     16.84880000    -5.90810000    -0.18240000
He     16.96695000    -6.15365000     0.42490000
He     16.79810000    -6.41885000    -0.60410000
He     17.23550000    -6.82520000    -2.25860000
He     16.69260875    -7.10251290    -1.77958336
He     16.67730046    -6.65602297    -1.74783322
He     19.24620000    -9.59290000    -2.14070000
He     18.65945000    -9.28025000    -2.12470000
He     17.89900000    -7.84450000    -2.79990000
He     17.95344048    -8.61812425    -2.79074540
He     17.60749542    -8.50958284    -2.52744459
He     17.56725000    -7.33485000    -2.52925000
He     19.48270000   -10.08320000    -0.92710000
He     18.96870000    -9.92185000    -0.53610000
He     19.36445000    -9.83805000    -1.53390000
He     18.78300000    -6.45200000     2.58660000
He     18.47586514    -7.14197347     2.76311506
He     18.89240640    -7.13966684     2.92820992
He     18.34770000    -6.10755000     2.22175000
He     20.00230000    -8.40350000     2.46080000
He     19.41495000    -8.09080000     2.47670000
He     19.90100000    -9.42490000     1.61740000
He     19.28225000    -9.42855000     1.37210000
He     19.95165000    -8.91420000     2.03910000
He     18.50270000    -4.63480000     1.46860000
He     18.20755000    -5.19895000     1.66275000
He     17.43830000    -4.78090000    -0.57070000
He     16.88787952    -5.13429935    -0.15450409
He     16.81732533    -5.24492384    -0.58274931
He     17.82490000    -5.69790000    -2.64690000
He     17.53020000    -6.26155000    -2.45275000
He     20.24450000    -9.09600000    -2.86260000
He     19.86691445    -9.71403807    -2.58793691
He     19.57347777    -9.48185984    -2.83391069
He     18.89740000    -7.34750000    -3.52180000
He     18.39820000    -7.59600000    -3.16085000
He     20.71900000   -10.07580000    -0.43650000
He     20.02975972   -10.42616376    -0.49742532
He     20.19435461   -10.39119346    -0.91272789
He     19.91260000    -5.75050000     2.65040000
He     19.34780000    -6.10125000     2.61850000
He     21.13120000    -7.70300000     2.52450000
He     20.51371091    -8.00340612     2.88448968
He     20.73680664    -8.34637987     2.70239153
He     20.92830000    -9.74730000     0.83650000
He     20.59681170    -9.75737432     1.53730159
He     20.31839080    -9.97147713     1.25942344
He     20.82365000    -9.91155000     0.20000000
He     19.73890000    -4.62730000     1.95930000
He     19.12080000    -4.63105000     1.71395000
He     19.82575000    -5.18890000     2.30485000
He     18.26620000    -4.14460000     0.25510000
He     18.02978559    -4.25499607     0.98538523
He     18.40995860    -4.01880899     1.00670207
He     17.85225000    -4.46275000    -0.15780000
He     17.92630000    -4.67640000    -1.80360000
He     17.49127304    -5.09995060    -2.28466354
He     17.82778375    -4.93244062    -2.52803319
He     17.68230000    -4.72865000    -1.18715000
He     18.85220000    -6.02030000    -3.42780000
He     18.33855000    -5.85910000    -3.03735000
He     18.87480000    -6.68390000    -3.47480000
He     20.07090000    -7.97280000    -3.55370000
He     19.33292071    -7.93120769    -3.78775607
He     19.53161602    -7.55165638    -3.91830448
He     20.15770000    -8.53440000    -3.20815000
He     21.48080000    -9.08840000    -2.37190000
He     20.86265000    -9.09220000    -2.61725000
He     21.71730000    -9.57870000    -1.15840000
He     21.57363736    -9.70444035    -1.91005107
He     21.95372614    -9.46824635    -1.88869555
He     21.21815000    -9.82725000    -0.79745000
He     21.08600000    -6.37580000     2.61850000
He     20.65066469    -5.79188273     2.88485461
He     20.45185533    -6.17162016     3.01547874
He     21.10860000    -7.03940000     2.57150000
He     22.15850000    -8.02540000     1.74370000
He     21.64485000    -7.86420000     2.13410000
He     22.05720000    -9.04680000     0.90030000
He     22.49213296    -8.62337728     1.38154132
He     22.15553758    -8.79083713     1.62477182
He     21.49275000    -9.39705000     0.86840000
He     20.73730000    -4.13030000     1.23740000
He     20.41005349    -4.24153245     1.93066796
He     20.11664224    -4.00918697     1.68483600
He     19.26450000    -3.64750000    -0.46680000
He     18.76535000    -3.89605000    -0.10585000
He     19.05510000    -3.97600000    -1.73980000
He     18.49070000    -4.32620000    -1.77170000
He     19.15980000    -3.81175000    -1.10330000
He     19.98110000    -5.31970000    -3.36410000
He     19.46969133    -5.71979551    -3.78828314
He     19.24643122    -5.37661257    -3.60611101
He     21.20050000    -7.27130000    -3.48990000
He     20.63570000    -7.62205000    -3.52180000
He     22.07110000    -7.96020000    -2.76020000
He     21.77595000    -8.52430000    -2.56605000
He     21.63580000    -7.61575000    -3.12505000
He     22.54510000    -8.94240000    -0.33260000
He     22.13120000    -9.26055000    -0.74550000
He     22.30115000    -8.99460000     0.28385000
He     22.08440000    -5.87880000     1.89660000
He     21.58520000    -6.12730000     2.25755000
He     22.74800000    -6.89810000     1.35540000
He     22.45325000    -7.46175000     1.54955000
He     22.41620000    -6.38845000     1.62600000
He     21.91080000    -4.75570000     1.20550000
He     21.32405000    -4.44300000     1.22145000
He     21.99760000    -5.31725000     1.55105000
He     20.50080000    -3.64010000     0.02380000
He     19.78921395    -3.33258457     0.00926231
He     19.95370383    -3.29763451    -0.40577532
He     20.61905000    -3.88520000     0.63060000
He     20.08240000    -4.29830000    -2.52060000
He     19.38648814    -3.96549435    -2.44085858
He     19.66501835    -3.75132194    -2.16280234
He     20.03175000    -4.80900000    -2.94235000
He     21.15590000    -5.94520000    -3.39590000
He     21.09098257    -6.58367154    -3.83102123
He     21.50732889    -6.58136201    -3.66605976
He     20.56850000    -5.63245000    -3.38000000
He     22.89840000    -7.32400000    -1.93550000
He     22.71009400    -7.53309855    -2.65799164
He     22.76854628    -7.91108005    -2.42504117
He     23.13470000    -7.81520000    -0.72090000
He     23.09602429    -8.58926708    -0.74881441
He     23.16654243    -8.47859310    -0.32046210
He     23.01655000    -7.56960000    -1.32820000
He     23.23610000    -6.79370000     0.12250000
He     22.99205000    -6.84590000     0.73895000
He     23.18540000    -7.30445000    -0.29920000
He     22.39940000    -4.65170000    -0.02850000
He     22.15510000    -4.70370000     0.58850000
He     21.52880000    -3.96280000    -0.75820000
He     21.01480000    -3.80145000    -0.36720000
He     21.96410000    -4.30725000    -0.39335000
He     21.32000000    -4.29110000    -2.03010000
He     20.70120000    -4.29470000    -2.27535000
He     21.42440000    -4.12695000    -1.39415000
He     21.98310000    -5.30910000    -2.57120000
He     21.56950000    -5.62715000    -2.98355000
He     21.65155000    -4.80010000    -2.30065000
He     22.85370000    -5.99800000    -1.84160000
He     22.87605000    -6.66100000    -1.88855000
He     22.41840000    -5.65355000    -2.20640000
He     23.06240000    -5.66980000    -0.56970000
He     23.14925000    -6.23175000    -0.22360000
He     22.73090000    -5.16075000    -0.29910000
He     22.95805000    -5.83390000    -1.20565000
