74               
angstrom
C       3.45550000    -0.66350000     0.00000000
C       2.30360000    -1.33150000     0.00000000
C       1.15180000    -0.66350000     0.00000000
N       0.00000000     0.00000000     0.00000000
C       2.30360000    -2.65840000     0.00000000
C       1.15180000    -3.32650000     0.00000000
N       0.00000000    -3.98990000     0.00000000
C       3.45550000    -3.32650000     0.00000000
N       4.60730000    -3.98990000     0.00000000
N       4.60730000     0.00000000     0.00000000
X      3.45550000    -0.66350000     0.00000000
X      2.87955000    -0.99750000     0.00000000
X      4.11925100    -0.48425457     0.35783146
X      4.11869218    -0.48328450    -0.35837992
X      3.83235013     0.01378978     0.00045108
X      2.30360000    -1.33150000     0.00000000
X      1.72770000    -0.99750000     0.00000000
X      2.30356624    -1.99495000    -0.39807000
X      2.30367395    -1.99495000     0.39806999
X      1.15180000    -0.66350000     0.00000000
X      0.68062353    -0.14995563    -0.33912031
X      0.68186888    -0.14779378     0.33756407
X      0.37780694    -0.67562880    -0.03905511
X      0.00000000     0.00000000     0.00000000
X     -0.57590000     0.33175000     0.00000000
X      2.30360000    -2.65840000     0.00000000
X      1.72770000    -2.99245000     0.00000000
X      2.87955000    -2.99245000     0.00000000
X      1.15180000    -3.32650000     0.00000000
X      0.68047936    -3.83977146     0.33926658
X      0.68188362    -3.84220955    -0.33751268
X      0.37782463    -3.31430007     0.03880516
X      0.00000000    -3.98990000     0.00000000
X     -0.57590000    -4.32160000     0.00000000
X      3.45550000    -3.32650000     0.00000000
X      4.11887336    -3.50632810     0.35817620
X      3.83238002    -4.00373997    -0.00016122
X      4.11907427    -3.50597928    -0.35797895
X      4.60730000    -3.98990000     0.00000000
X      5.18320000    -4.32160000     0.00000000
X      4.60730000     0.00000000     0.00000000
X      5.18320000     0.33175000     0.00000000
He      3.45550000    -0.66350000     0.00000000
He      2.30360000    -1.33150000     0.00000000
He      2.87955000    -0.99750000     0.00000000
He      1.15180000    -0.66350000     0.00000000
He      1.72770000    -0.99750000     0.00000000
He      0.00000000     0.00000000     0.00000000
He      0.37780694    -0.67562880    -0.03905511
He      0.68186888    -0.14779378     0.33756407
He      0.68062353    -0.14995563    -0.33912031
He     -0.57590000     0.33175000     0.00000000
He      2.30360000    -2.65840000     0.00000000
He      2.30367395    -1.99495000     0.39806999
He      2.30356624    -1.99495000    -0.39807000
He      1.15180000    -3.32650000     0.00000000
He      1.72770000    -2.99245000     0.00000000
He      0.00000000    -3.98990000     0.00000000
He      0.37782463    -3.31430007     0.03880516
He      0.68188362    -3.84220955    -0.33751268
He      0.68047936    -3.83977146     0.33926658
He     -0.57590000    -4.32160000     0.00000000
He      3.45550000    -3.32650000     0.00000000
He      2.87955000    -2.99245000     0.00000000
He      4.60730000    -3.98990000     0.00000000
He      4.11907427    -3.50597928    -0.35797895
He      3.83238002    -4.00373997    -0.00016122
He      4.11887336    -3.50632810     0.35817620
He      5.18320000    -4.32160000     0.00000000
He      4.60730000     0.00000000     0.00000000
He      3.83235013     0.01378978     0.00045108
He      4.11869218    -0.48328450    -0.35837992
He      4.11925100    -0.48425457     0.35783146
He      5.18320000     0.33175000     0.00000000
