200              
angstrom
N      -1.18980000     1.70430000    -0.09430000
N      -1.66980000    -1.25660000    -0.07960000
N       1.74440000     1.22960000     0.03670000
N       1.26940000    -1.70350000     0.07830000
C      -2.53400000     1.66120000    -0.13490000
C      -2.93270000    -0.79780000    -0.13880000
C      -0.73630000     2.96970000    -0.08840000
C      -1.63250000    -2.59920000    -0.05670000
C      -3.36370000     0.53370000    -0.16090000
C      -2.97690000     2.98200000    -0.14920000
C      -3.76460000    -1.91520000    -0.16870000
C      -1.85610000     3.79760000    -0.12160000
C      -2.95310000    -3.03880000    -0.11920000
C       0.59410000     3.40330000    -0.05460000
C      -0.50030000    -3.41830000     0.02690000
C       1.72250000     2.57520000     0.00150000
C       0.82670000    -2.97520000     0.10100000
C       3.01320000     0.78680000     0.10590000
C       2.61240000    -1.67480000     0.17000000
C       3.44100000    -0.54560000     0.17470000
C       3.04060000     3.02270000     0.04130000
C       1.93750000    -3.80730000     0.21810000
C       3.85040000     1.90030000     0.10760000
C       3.05660000    -2.99220000     0.26240000
H      -4.37480000     0.69710000    -0.19830000
H      -0.61360000     0.92670000    -0.07480000
H      -0.88120000    -0.69630000    -0.05130000
H      -3.94760000     3.29930000    -0.17540000
H      -4.78510000    -1.91490000    -0.21540000
H      -1.85860000     4.81890000    -0.12440000
H      -3.27310000    -4.00880000    -0.12370000
H       0.75440000     4.41500000    -0.06760000
H      -0.65990000    -4.42990000     0.04110000
H       4.45060000    -0.70740000     0.23710000
H       3.35880000     3.99330000     0.02820000
H       1.93570000    -4.82760000     0.26610000
H       4.87100000     1.90020000     0.15200000
H       4.02420000    -3.30770000     0.34900000
X     -1.18980000     1.70430000    -0.09430000
X     -1.86190000     1.68275000    -0.11460000
X     -0.96305000     2.33700000    -0.09135000
X     -0.70003000     1.04334000    -0.07772500
X     -1.16258926     1.69872099    -0.98928074
X     -1.66980000    -1.25660000    -0.07960000
X     -2.30125000    -1.02720000    -0.10920000
X     -1.65115000    -1.92790000    -0.06815000
X     -0.99949000    -0.78034500    -0.05554500
X     -1.70655259    -1.24236675     0.81474227
X      1.74440000     1.22960000     0.03670000
X      1.68300400     1.91205337     0.41950762
X      1.71631208     1.89157418    -0.38407905
X      2.37880000     1.00820000     0.07130000
X      1.19956610     0.83512086     0.02184367
X      1.26940000    -1.70350000     0.07830000
X      1.04805000    -2.33935000     0.08965000
X      1.96741266    -1.64852920    -0.27685670
X      1.91226561    -1.61396866     0.51998731
X      0.87558786    -1.15978291     0.02825878
X     -2.53400000     1.66120000    -0.13490000
X     -3.13552596     1.22712821     0.18567130
X     -3.10892653     1.22328358    -0.49643347
X     -2.75545000     2.32160000    -0.14205000
X     -2.93270000    -0.79780000    -0.13880000
X     -3.14820000    -0.13205000    -0.14985000
X     -3.53488249    -1.22677741     0.17985482
X     -3.50121834    -1.23347597    -0.50644059
X     -0.73630000     2.96970000    -0.08840000
X     -1.29620000     3.38365000    -0.10500000
X     -0.14656087     3.39161557     0.26740609
X     -0.12479848     3.37858279    -0.42199216
X     -1.63250000    -2.59920000    -0.05670000
X     -2.24199111    -3.02070797     0.25721155
X     -2.20800301    -3.02608774    -0.42310411
X     -1.06640000    -3.00875000    -0.01490000
X     -3.36370000     0.53370000    -0.16090000
X     -4.22313500     0.67259000    -0.19269000
X     -2.97690000     2.98200000    -0.14920000
X     -2.65527973     3.73095308    -0.52018717
X     -2.67721640     3.73569694     0.23044781
X     -3.80199500     3.25170500    -0.17147000
X     -3.76460000    -1.91520000    -0.16870000
X     -3.35885000    -2.47700000    -0.14395000
X     -4.63202500    -1.91494500    -0.20839500
X     -1.85610000     3.79760000    -0.12160000
X     -1.85822500     4.66570500    -0.12398000
X     -2.95310000    -3.03880000    -0.11920000
X     -3.22510000    -3.86330000    -0.12302500
X      0.59410000     3.40330000    -0.05460000
X      1.15830000     2.98925000    -0.02655000
X      0.73035500     4.26324500    -0.06565000
X     -0.50030000    -3.41830000     0.02690000
X      0.23566883    -3.49390597     0.54308192
X      0.29344982    -3.51062016    -0.39172676
X     -0.63596000    -4.27816000     0.03897000
X      1.72250000     2.57520000     0.00150000
X      2.38155000     2.79895000     0.02140000
X      0.82670000    -2.97520000     0.10100000
X      1.38210000    -3.39125000     0.15955000
X      3.01320000     0.78680000     0.10590000
X      3.39904102     0.19427782     0.49803191
X      3.43100670     0.16824802    -0.20483183
X      3.43180000     1.34355000     0.10675000
X      2.61240000    -1.67480000     0.17000000
X      3.02670000    -1.11020000     0.17235000
X      2.83450000    -2.33350000     0.21620000
X      3.44100000    -0.54560000     0.17470000
X      4.29916000    -0.68313000     0.22774000
X      3.04060000     3.02270000     0.04130000
X      3.76994796     2.71847256     0.46190164
X      3.80011072     2.69516146    -0.30114780
X      3.31107000     3.84771000     0.03016500
X      1.93750000    -3.80730000     0.21810000
X      2.76782476    -3.75239877    -0.11144349
X      2.71671292    -3.72362951     0.65039473
X      1.93597000    -4.67455500     0.25890000
X      3.85040000     1.90030000     0.10760000
X      4.71791000     1.90021500     0.14534000
X      3.05660000    -2.99220000     0.26240000
X      3.87906000    -3.26037500     0.33601000
He     -1.18980000     1.70430000    -0.09430000
He     -1.16258926     1.69872099    -0.98928074
He     -1.66980000    -1.25660000    -0.07960000
He     -1.70655259    -1.24236675     0.81474227
He      1.74440000     1.22960000     0.03670000
He      1.19956610     0.83512086     0.02184367
He      1.26940000    -1.70350000     0.07830000
He      0.87558786    -1.15978291     0.02825878
He     -2.53400000     1.66120000    -0.13490000
He     -1.86190000     1.68275000    -0.11460000
He     -2.93270000    -0.79780000    -0.13880000
He     -2.30125000    -1.02720000    -0.10920000
He     -0.73630000     2.96970000    -0.08840000
He     -0.96305000     2.33700000    -0.09135000
He     -1.63250000    -2.59920000    -0.05670000
He     -1.65115000    -1.92790000    -0.06815000
He     -3.36370000     0.53370000    -0.16090000
He     -3.10892653     1.22328358    -0.49643347
He     -3.13552596     1.22712821     0.18567130
He     -3.14820000    -0.13205000    -0.14985000
He     -2.97690000     2.98200000    -0.14920000
He     -2.75545000     2.32160000    -0.14205000
He     -3.76460000    -1.91520000    -0.16870000
He     -3.50121834    -1.23347597    -0.50644059
He     -3.53488249    -1.22677741     0.17985482
He     -1.85610000     3.79760000    -0.12160000
He     -2.67721640     3.73569694     0.23044781
He     -2.65527973     3.73095308    -0.52018717
He     -1.29620000     3.38365000    -0.10500000
He     -2.95310000    -3.03880000    -0.11920000
He     -2.20800301    -3.02608774    -0.42310411
He     -2.24199111    -3.02070797     0.25721155
He     -3.35885000    -2.47700000    -0.14395000
He      0.59410000     3.40330000    -0.05460000
He     -0.12479848     3.37858279    -0.42199216
He     -0.14656087     3.39161557     0.26740609
He     -0.50030000    -3.41830000     0.02690000
He     -1.06640000    -3.00875000    -0.01490000
He      1.72250000     2.57520000     0.00150000
He      1.71631208     1.89157418    -0.38407905
He      1.68300400     1.91205337     0.41950762
He      1.15830000     2.98925000    -0.02655000
He      0.82670000    -2.97520000     0.10100000
He      0.29344982    -3.51062016    -0.39172676
He      0.23566883    -3.49390597     0.54308192
He      1.04805000    -2.33935000     0.08965000
He      3.01320000     0.78680000     0.10590000
He      2.37880000     1.00820000     0.07130000
He      2.61240000    -1.67480000     0.17000000
He      1.91226561    -1.61396866     0.51998731
He      1.96741266    -1.64852920    -0.27685670
He      3.44100000    -0.54560000     0.17470000
He      3.43100670     0.16824802    -0.20483183
He      3.39904102     0.19427782     0.49803191
He      3.02670000    -1.11020000     0.17235000
He      3.04060000     3.02270000     0.04130000
He      2.38155000     2.79895000     0.02140000
He      1.93750000    -3.80730000     0.21810000
He      1.38210000    -3.39125000     0.15955000
He      3.85040000     1.90030000     0.10760000
He      3.80011072     2.69516146    -0.30114780
He      3.76994796     2.71847256     0.46190164
He      3.43180000     1.34355000     0.10675000
He      3.05660000    -2.99220000     0.26240000
He      2.71671292    -3.72362951     0.65039473
He      2.76782476    -3.75239877    -0.11144349
He      2.83450000    -2.33350000     0.21620000
He     -4.22313500     0.67259000    -0.19269000
He     -0.70003000     1.04334000    -0.07772500
He     -0.99949000    -0.78034500    -0.05554500
He     -3.80199500     3.25170500    -0.17147000
He     -4.63202500    -1.91494500    -0.20839500
He     -1.85822500     4.66570500    -0.12398000
He     -3.22510000    -3.86330000    -0.12302500
He      0.73035500     4.26324500    -0.06565000
He     -0.63596000    -4.27816000     0.03897000
He      4.29916000    -0.68313000     0.22774000
He      3.31107000     3.84771000     0.03016500
He      1.93597000    -4.67455500     0.25890000
He      4.71791000     1.90021500     0.14534000
He      3.87906000    -3.26037500     0.33601000
