200              
angstrom
N      -1.18980000     1.70430000    -0.09430000
N      -1.66980000    -1.25660000    -0.07960000
N       1.74440000     1.22960000     0.03670000
N       1.26940000    -1.70350000     0.07830000
C      -2.53400000     1.66120000    -0.13490000
C      -2.93270000    -0.79780000    -0.13880000
C      -0.73630000     2.96970000    -0.08840000
C      -1.63250000    -2.59920000    -0.05670000
C      -3.36370000     0.53370000    -0.16090000
C      -2.97690000     2.98200000    -0.14920000
C      -3.76460000    -1.91520000    -0.16870000
C      -1.85610000     3.79760000    -0.12160000
C      -2.95310000    -3.03880000    -0.11920000
C       0.59410000     3.40330000    -0.05460000
C      -0.50030000    -3.41830000     0.02690000
C       1.72250000     2.57520000     0.00150000
C       0.82670000    -2.97520000     0.10100000
C       3.01320000     0.78680000     0.10590000
C       2.61240000    -1.67480000     0.17000000
C       3.44100000    -0.54560000     0.17470000
C       3.04060000     3.02270000     0.04130000
C       1.93750000    -3.80730000     0.21810000
C       3.85040000     1.90030000     0.10760000
C       3.05660000    -2.99220000     0.26240000
H      -4.37480000     0.69710000    -0.19830000
H      -0.61360000     0.92670000    -0.07480000
H      -0.88120000    -0.69630000    -0.05130000
H      -3.94760000     3.29930000    -0.17540000
H      -4.78510000    -1.91490000    -0.21540000
H      -1.85860000     4.81890000    -0.12440000
H      -3.27310000    -4.00880000    -0.12370000
H       0.75440000     4.41500000    -0.06760000
H      -0.65990000    -4.42990000     0.04110000
H       4.45060000    -0.70740000     0.23710000
H       3.35880000     3.99330000     0.02820000
H       1.93570000    -4.82760000     0.26610000
H       4.87100000     1.90020000     0.15200000
H       4.02420000    -3.30770000     0.34900000
X     -1.18980000     1.70430000    -0.09430000
X     -1.86190000     1.68275000    -0.11460000
X     -0.96305000     2.33700000    -0.09135000
X     -0.70003000     1.04334000    -0.07772500
X     -1.16258926     1.69872099    -0.98928074
X     -1.66980000    -1.25660000    -0.07960000
X     -2.30125000    -1.02720000    -0.10920000
X     -1.65115000    -1.92790000    -0.06815000
X     -0.99949000    -0.78034500    -0.05554500
X     -1.70655259    -1.24236675     0.81474227
X      1.74440000     1.22960000     0.03670000
X      1.68298562     1.91205302     0.41950532
X      1.71632997     1.89157445    -0.38407982
X      2.37880000     1.00820000     0.07130000
X      1.19956610     0.83512086     0.02184367
X      1.26940000    -1.70350000     0.07830000
X      1.04805000    -2.33935000     0.08965000
X      1.91226549    -1.61395433     0.51998458
X      1.96741254    -1.64852523    -0.27685630
X      0.87558786    -1.15978291     0.02825878
X     -2.53400000     1.66120000    -0.13490000
X     -3.13550670     1.22711367     0.18568773
X     -3.10890876     1.22327080    -0.49644625
X     -2.75545000     2.32160000    -0.14205000
X     -2.93270000    -0.79780000    -0.13880000
X     -3.14820000    -0.13205000    -0.14985000
X     -3.53488972    -1.22677186     0.17984863
X     -3.50123898    -1.23346098    -0.50642643
X     -0.73630000     2.96970000    -0.08840000
X     -1.29620000     3.38365000    -0.10500000
X     -0.14655430     3.39159431     0.26742042
X     -0.12477441     3.37851223    -0.42203451
X     -1.63250000    -2.59920000    -0.05670000
X     -2.24199142    -3.02070710     0.25721210
X     -2.20798743    -3.02613967    -0.42306808
X     -1.06640000    -3.00875000    -0.01490000
X     -3.36370000     0.53370000    -0.16090000
X     -4.22313500     0.67259000    -0.19269000
X     -2.97690000     2.98200000    -0.14920000
X     -2.67727101     3.73577582     0.23033428
X     -2.65526592     3.73093493    -0.52021183
X     -3.80199500     3.25170500    -0.17147000
X     -3.76460000    -1.91520000    -0.16870000
X     -3.35885000    -2.47700000    -0.14395000
X     -4.63202500    -1.91494500    -0.20839500
X     -1.85610000     3.79760000    -0.12160000
X     -1.85822500     4.66570500    -0.12398000
X     -2.95310000    -3.03880000    -0.11920000
X     -3.22510000    -3.86330000    -0.12302500
X      0.59410000     3.40330000    -0.05460000
X      1.15830000     2.98925000    -0.02655000
X      0.73035500     4.26324500    -0.06565000
X     -0.50030000    -3.41830000     0.02690000
X      0.23569219    -3.49396882     0.54303940
X      0.29347143    -3.51069445    -0.39166940
X     -0.63596000    -4.27816000     0.03897000
X      1.72250000     2.57520000     0.00150000
X      2.38155000     2.79895000     0.02140000
X      0.82670000    -2.97520000     0.10100000
X      1.38210000    -3.39125000     0.15955000
X      3.01320000     0.78680000     0.10590000
X      3.39904357     0.19427857     0.49803053
X      3.43112143     0.16828865    -0.20475840
X      3.43180000     1.34355000     0.10675000
X      2.61240000    -1.67480000     0.17000000
X      3.02670000    -1.11020000     0.17235000
X      2.83450000    -2.33350000     0.21620000
X      3.44100000    -0.54560000     0.17470000
X      4.29916000    -0.68313000     0.22774000
X      3.04060000     3.02270000     0.04130000
X      3.77002099     2.71851979     0.46180914
X      3.80013792     2.69518341    -0.30110846
X      3.31107000     3.84771000     0.03016500
X      1.93750000    -3.80730000     0.21810000
X      2.71670726    -3.72362221     0.65040353
X      2.76787822    -3.75247877    -0.11132207
X      1.93597000    -4.67455500     0.25890000
X      3.85040000     1.90030000     0.10760000
X      4.71791000     1.90021500     0.14534000
X      3.05660000    -2.99220000     0.26240000
X      3.87906000    -3.26037500     0.33601000
He     -1.18980000     1.70430000    -0.09430000
He     -1.16258926     1.69872099    -0.98928074
He     -1.66980000    -1.25660000    -0.07960000
He     -1.70655259    -1.24236675     0.81474227
He      1.74440000     1.22960000     0.03670000
He      1.19956610     0.83512086     0.02184367
He      1.26940000    -1.70350000     0.07830000
He      0.87558786    -1.15978291     0.02825878
He     -2.53400000     1.66120000    -0.13490000
He     -1.86190000     1.68275000    -0.11460000
He     -2.93270000    -0.79780000    -0.13880000
He     -2.30125000    -1.02720000    -0.10920000
He     -0.73630000     2.96970000    -0.08840000
He     -0.96305000     2.33700000    -0.09135000
He     -1.63250000    -2.59920000    -0.05670000
He     -1.65115000    -1.92790000    -0.06815000
He     -3.36370000     0.53370000    -0.16090000
He     -3.10890876     1.22327080    -0.49644625
He     -3.13550670     1.22711367     0.18568773
He     -3.14820000    -0.13205000    -0.14985000
He     -2.97690000     2.98200000    -0.14920000
He     -2.75545000     2.32160000    -0.14205000
He     -3.76460000    -1.91520000    -0.16870000
He     -3.50123898    -1.23346098    -0.50642643
He     -3.53488972    -1.22677186     0.17984863
He     -1.85610000     3.79760000    -0.12160000
He     -2.65526592     3.73093493    -0.52021183
He     -2.67727101     3.73577582     0.23033428
He     -1.29620000     3.38365000    -0.10500000
He     -2.95310000    -3.03880000    -0.11920000
He     -2.20798743    -3.02613967    -0.42306808
He     -2.24199142    -3.02070710     0.25721210
He     -3.35885000    -2.47700000    -0.14395000
He      0.59410000     3.40330000    -0.05460000
He     -0.12477441     3.37851223    -0.42203451
He     -0.14655430     3.39159431     0.26742042
He     -0.50030000    -3.41830000     0.02690000
He     -1.06640000    -3.00875000    -0.01490000
He      1.72250000     2.57520000     0.00150000
He      1.71632997     1.89157445    -0.38407982
He      1.68298562     1.91205302     0.41950532
He      1.15830000     2.98925000    -0.02655000
He      0.82670000    -2.97520000     0.10100000
He      0.29347143    -3.51069445    -0.39166940
He      0.23569219    -3.49396882     0.54303940
He      1.04805000    -2.33935000     0.08965000
He      3.01320000     0.78680000     0.10590000
He      2.37880000     1.00820000     0.07130000
He      2.61240000    -1.67480000     0.17000000
He      1.96741254    -1.64852523    -0.27685630
He      1.91226549    -1.61395433     0.51998458
He      3.44100000    -0.54560000     0.17470000
He      3.43112143     0.16828865    -0.20475840
He      3.39904357     0.19427857     0.49803053
He      3.02670000    -1.11020000     0.17235000
He      3.04060000     3.02270000     0.04130000
He      2.38155000     2.79895000     0.02140000
He      1.93750000    -3.80730000     0.21810000
He      1.38210000    -3.39125000     0.15955000
He      3.85040000     1.90030000     0.10760000
He      3.80013792     2.69518341    -0.30110846
He      3.77002099     2.71851979     0.46180914
He      3.43180000     1.34355000     0.10675000
He      3.05660000    -2.99220000     0.26240000
He      2.76787822    -3.75247877    -0.11132207
He      2.71670726    -3.72362221     0.65040353
He      2.83450000    -2.33350000     0.21620000
He     -4.22313500     0.67259000    -0.19269000
He     -0.70003000     1.04334000    -0.07772500
He     -0.99949000    -0.78034500    -0.05554500
He     -3.80199500     3.25170500    -0.17147000
He     -4.63202500    -1.91494500    -0.20839500
He     -1.85822500     4.66570500    -0.12398000
He     -3.22510000    -3.86330000    -0.12302500
He      0.73035500     4.26324500    -0.06565000
He     -0.63596000    -4.27816000     0.03897000
He      4.29916000    -0.68313000     0.22774000
He      3.31107000     3.84771000     0.03016500
He      1.93597000    -4.67455500     0.25890000
He      4.71791000     1.90021500     0.14534000
He      3.87906000    -3.26037500     0.33601000
