182              
angstrom
C      -0.71130000    -1.22630000     0.00000000
C       0.71130000    -1.22630000    -0.00000000
C      -0.71130000     1.22630000     0.00000000
C       0.71130000     1.22630000    -0.00000000
C      -1.40710000     0.00000000     0.00000000
C       1.40710000    -0.00000000     0.00000000
C      -0.71230000    -3.67890000    -0.00000000
C       0.71230000    -3.67890000    -0.00000000
C      -0.71230000     3.67890000    -0.00000000
C       0.71230000     3.67890000     0.00000000
C      -1.40810000    -2.45220000     0.00000000
C       1.40810000    -2.45220000     0.00000000
C      -1.40810000     2.45220000    -0.00000000
C       1.40810000     2.45220000     0.00000000
C      -1.40810000    -4.90740000    -0.00000000
C       1.40810000    -4.90740000    -0.00000000
C      -1.40810000     4.90740000    -0.00000000
C       1.40810000     4.90740000    -0.00000000
C      -0.70230000    -6.12370000     0.00000000
C       0.70230000    -6.12370000     0.00000000
C      -0.70230000     6.12370000     0.00000000
C       0.70230000     6.12370000    -0.00000000
H      -2.43250000    -0.00000000    -0.00000000
H       2.43250000     0.00000000     0.00000000
H      -2.43330000    -2.45150000    -0.00000000
H       2.43330000    -2.45150000     0.00000000
H      -2.43330000     2.45150000     0.00000000
H       2.43330000     2.45150000    -0.00000000
H      -2.43140000    -4.93320000     0.00000000
H       2.43140000    -4.93320000     0.00000000
H      -2.43140000     4.93320000    -0.00000000
H       2.43140000     4.93320000    -0.00000000
H      -1.21390000    -7.00830000    -0.00000000
H       1.21390000    -7.00830000     0.00000000
H      -1.21390000     7.00830000    -0.00000000
H       1.21390000     7.00830000     0.00000000
X     -0.71130000    -1.22630000     0.00000000
X      0.00000000    -1.22630000     0.00000000
X     -1.23072112    -0.71047072    -0.37419864
X     -1.23078644    -0.71050778     0.37415905
X     -1.05970000    -1.83925000     0.00000000
X      0.71130000    -1.22630000     0.00000000
X      1.23073431    -0.71047820    -0.37419065
X      1.23083517    -0.71053543     0.37412950
X      1.05970000    -1.83925000     0.00000000
X     -0.71130000     1.22630000     0.00000000
X      0.00000000     1.22630000     0.00000000
X     -1.05920000     0.61315000     0.00000000
X     -1.21048691     1.75354291    -0.38578886
X     -1.21057226     1.75349440     0.38574471
X      0.71130000     1.22630000     0.00000000
X      1.05920000     0.61315000     0.00000000
X      1.21051967     1.75352429     0.38577192
X      1.21047342     1.75355058    -0.38579583
X     -1.40710000     0.00000000     0.00000000
X     -2.27869000     0.00000000     0.00000000
X      1.40710000     0.00000000     0.00000000
X      2.27869000     0.00000000     0.00000000
X     -0.71230000    -3.67890000     0.00000000
X      0.00000000    -3.67890000    -0.00000000
X     -1.24990987    -3.17315588    -0.36253950
X     -1.24990972    -3.17315579     0.36253961
X     -1.06020000    -4.29315000    -0.00000000
X      0.71230000    -3.67890000     0.00000000
X      1.24988203    -3.17314008    -0.36255876
X      1.24992343    -3.17316357     0.36253012
X      1.06020000    -4.29315000    -0.00000000
X     -0.71230000     3.67890000     0.00000000
X      0.00000000     3.67890000     0.00000000
X     -1.06020000     3.06555000    -0.00000000
X     -1.16843945     4.23184515    -0.40438804
X     -1.16836386     4.23188796     0.40441475
X      0.71230000     3.67890000     0.00000000
X      1.06020000     3.06555000     0.00000000
X      1.16837098     4.23188393     0.40441224
X      1.16839318     4.23187136    -0.40440439
X     -1.40810000    -2.45220000     0.00000000
X     -2.27952000    -2.45160500     0.00000000
X      1.40810000    -2.45220000     0.00000000
X      2.27952000    -2.45160500     0.00000000
X     -1.40810000     2.45220000     0.00000000
X     -2.27952000     2.45160500     0.00000000
X      1.40810000     2.45220000     0.00000000
X      2.27952000     2.45160500     0.00000000
X     -1.40810000    -4.90740000     0.00000000
X     -1.38557009    -5.70725864     0.42054087
X     -1.38545728    -5.70719317    -0.42065930
X     -2.27790500    -4.92933000     0.00000000
X      1.40810000    -4.90740000     0.00000000
X      1.38550023    -5.70721809     0.42061422
X      1.38559214    -5.70727143    -0.42051772
X      2.27790500    -4.92933000     0.00000000
X     -1.40810000     4.90740000     0.00000000
X     -1.05520000     5.51555000     0.00000000
X     -2.27790500     4.92933000     0.00000000
X      1.40810000     4.90740000     0.00000000
X      1.05520000     5.51555000    -0.00000000
X      2.27790500     4.92933000     0.00000000
X     -0.70230000    -6.12370000     0.00000000
X      0.00000000    -6.12370000     0.00000000
X     -1.13716000    -6.87561000     0.00000000
X      0.70230000    -6.12370000     0.00000000
X      1.13716000    -6.87561000     0.00000000
X     -0.70230000     6.12370000     0.00000000
X      0.00000000     6.52005955    -0.40565348
X      0.00000000     6.52008356     0.40563001
X     -1.13716000     6.87561000     0.00000000
X      0.70230000     6.12370000     0.00000000
X      1.13716000     6.87561000     0.00000000
He     -0.71130000    -1.22630000     0.00000000
He      0.71130000    -1.22630000     0.00000000
He      0.00000000    -1.22630000     0.00000000
He     -0.71130000     1.22630000     0.00000000
He      0.71130000     1.22630000     0.00000000
He      0.00000000     1.22630000     0.00000000
He     -1.40710000     0.00000000     0.00000000
He     -1.23078644    -0.71050778     0.37415905
He     -1.23072112    -0.71047072    -0.37419864
He     -1.05920000     0.61315000     0.00000000
He      1.40710000     0.00000000     0.00000000
He      1.23083517    -0.71053543     0.37412950
He      1.23073431    -0.71047820    -0.37419065
He      1.05920000     0.61315000     0.00000000
He     -0.71230000    -3.67890000     0.00000000
He      0.71230000    -3.67890000     0.00000000
He      0.00000000    -3.67890000    -0.00000000
He     -0.71230000     3.67890000     0.00000000
He      0.71230000     3.67890000     0.00000000
He      0.00000000     3.67890000     0.00000000
He     -1.40810000    -2.45220000     0.00000000
He     -1.24990972    -3.17315579     0.36253961
He     -1.24990987    -3.17315588    -0.36253950
He     -1.05970000    -1.83925000     0.00000000
He      1.40810000    -2.45220000     0.00000000
He      1.24992343    -3.17316357     0.36253012
He      1.24988203    -3.17314008    -0.36255876
He      1.05970000    -1.83925000     0.00000000
He     -1.40810000     2.45220000     0.00000000
He     -1.21057226     1.75349440     0.38574471
He     -1.21048691     1.75354291    -0.38578886
He     -1.06020000     3.06555000    -0.00000000
He      1.40810000     2.45220000     0.00000000
He      1.21047342     1.75355058    -0.38579583
He      1.21051967     1.75352429     0.38577192
He      1.06020000     3.06555000     0.00000000
He     -1.40810000    -4.90740000     0.00000000
He     -1.06020000    -4.29315000    -0.00000000
He      1.40810000    -4.90740000     0.00000000
He      1.06020000    -4.29315000    -0.00000000
He     -1.40810000     4.90740000     0.00000000
He     -1.16836386     4.23188796     0.40441475
He     -1.16843945     4.23184515    -0.40438804
He      1.40810000     4.90740000     0.00000000
He      1.16839318     4.23187136    -0.40440439
He      1.16837098     4.23188393     0.40441224
He     -0.70230000    -6.12370000     0.00000000
He     -1.38545728    -5.70719317    -0.42065930
He     -1.38557009    -5.70725864     0.42054087
He      0.70230000    -6.12370000     0.00000000
He      1.38559214    -5.70727143    -0.42051772
He      1.38550023    -5.70721809     0.42061422
He      0.00000000    -6.12370000     0.00000000
He     -0.70230000     6.12370000     0.00000000
He     -1.05520000     5.51555000     0.00000000
He      0.70230000     6.12370000     0.00000000
He      0.00000000     6.52008356     0.40563001
He      0.00000000     6.52005955    -0.40565348
He      1.05520000     5.51555000    -0.00000000
He     -2.27869000     0.00000000     0.00000000
He      2.27869000     0.00000000     0.00000000
He     -2.27952000    -2.45160500     0.00000000
He      2.27952000    -2.45160500     0.00000000
He     -2.27952000     2.45160500     0.00000000
He      2.27952000     2.45160500     0.00000000
He     -2.27790500    -4.92933000     0.00000000
He      2.27790500    -4.92933000     0.00000000
He     -2.27790500     4.92933000     0.00000000
He      2.27790500     4.92933000     0.00000000
He     -1.13716000    -6.87561000     0.00000000
He      1.13716000    -6.87561000     0.00000000
He     -1.13716000     6.87561000     0.00000000
He      1.13716000     6.87561000     0.00000000
