  31
 angstrom
F       1.33350000    -0.05300000     0.00000000
F      -0.49450000     1.23960000     0.00000000
C      -0.03750000    -0.05300000     0.00000000
H      -0.40080000    -0.56680000     0.89000000
H      -0.40080000    -0.56680000    -0.89000000
X      1.33246139    -0.05320346     0.00000101
X      0.64800000    -0.05300000     0.00000000
X      1.56200001     0.15783507    -0.35315192
X      1.56200001     0.15461822     0.35505264
X      1.56200001    -0.46429433    -0.00216356
X     -0.49434735     1.23855271    -0.00000035
X     -0.26600000     0.59330000     0.00000000
X     -0.37561764     1.52399312    -0.35548583
X     -0.95843794     1.31793643     0.00276216
X     -0.37134676     1.52550309     0.35281063
X     -0.06285828    -0.08886185     0.00000046
X     -0.34630500    -0.48973000     0.75649999
X     -0.34630500    -0.48973000    -0.75649999
He      1.33142259    -0.05340597     0.00000211
He      1.56200001     0.15783507    -0.35315192
He      1.56200001     0.15461822     0.35505264
He      1.56200001    -0.46429433    -0.00216356
He     -0.49419306     1.23750567    -0.00000064
He     -0.37561764     1.52399312    -0.35548583
He     -0.95843794     1.31793643     0.00276216
He     -0.37134676     1.52550309     0.35281063
He     -0.05858096    -0.08281288    -0.00000032
He      0.64800000    -0.05300000     0.00000000
He     -0.26600000     0.59330000     0.00000000
He     -0.34630501    -0.48973001     0.75650002
He     -0.34630501    -0.48973001    -0.75650002
