37               
 angstrom
Kr      0.00000000     0.00000000     0.00000000
X      0.00000000     0.00000000     0.00000000
X      0.00872811    -0.02600799    -0.07279104
X     -0.07568501     0.00226170     0.01782684
X      0.03680732    -0.04772846     0.04917670
X      0.03014958     0.07147475     0.00578750
X      0.06091491     0.09555603     0.25249610
X      0.20161154     0.18919152    -0.01246304
X     -0.15832833    -0.12129400     0.19187464
X     -0.04407148     0.17709504    -0.20806587
X     -0.01684343    -0.27265107    -0.04443023
X     -0.23292655    -0.06335811    -0.13537663
X      0.14636064    -0.07243614    -0.22344446
X      0.22095949    -0.13037193     0.10380662
X     -0.17767628     0.19826945     0.07560498
X      0.17154058    -0.44863030    -1.21846338
X     -1.27900223     0.02200314     0.28110055
X      0.61939139    -0.78527857     0.84560056
X      0.48807025     1.21190575     0.09176231
He      0.00000000     0.00000000     0.00000000
He     -0.00887253     0.02609077     0.07274394
He      0.07569832    -0.00190444    -0.01781206
He     -0.03704441     0.04745233    -0.04926581
He     -0.02978138    -0.07163866    -0.00566607
He     -0.06092799    -0.09550612    -0.25251183
He     -0.20199197    -0.18879105     0.01237563
He      0.15869946     0.12092899    -0.19179841
He      0.04357890    -0.17712362     0.20814528
He      0.01734908     0.27262973     0.04436655
He      0.23295698     0.06293733     0.13552046
He     -0.14637249     0.07278599     0.22332298
He     -0.22063064     0.13077755    -0.10399570
He      0.17733814    -0.19863961    -0.07542707
He     -0.12520313     0.41623354     1.23548458
He      1.26874534    -0.03204960    -0.32342920
He     -0.63460496     0.81762459    -0.80256777
He     -0.50893724    -1.20180854    -0.10948766
