118              
angstrom
C      -0.71240000    -1.22660000     0.00000000
C       0.71240000    -1.22660000     0.00000000
C      -0.71240000     1.22660000     0.00000000
C       0.71240000     1.22660000    -0.00000000
C      -1.40880000    -0.00000000    -0.00000000
C       1.40880000     0.00000000     0.00000000
C      -1.40790000    -2.45590000    -0.00000000
C       1.40790000    -2.45590000    -0.00000000
C      -1.40790000     2.45590000    -0.00000000
C       1.40790000     2.45590000     0.00000000
C      -0.70280000    -3.67180000    -0.00000000
C       0.70280000    -3.67180000     0.00000000
C      -0.70280000     3.67180000     0.00000000
C       0.70280000     3.67180000    -0.00000000
H      -2.43410000     0.00000000     0.00000000
H       2.43410000    -0.00000000    -0.00000000
H      -2.43160000    -2.48160000     0.00000000
H       2.43160000    -2.48160000    -0.00000000
H      -2.43160000     2.48160000    -0.00000000
H       2.43160000     2.48160000     0.00000000
H      -1.21430000    -4.55650000    -0.00000000
H       1.21430000    -4.55650000     0.00000000
H      -1.21430000     4.55650000     0.00000000
H       1.21430000     4.55650000    -0.00000000
X     -0.71240000    -1.22660000     0.00000000
X      0.00000000    -1.22660000     0.00000000
X     -1.23227892    -0.71077040    -0.37427626
X     -1.23223519    -0.71074558     0.37430277
X     -1.06015000    -1.84125000     0.00000000
X      0.71240000    -1.22660000     0.00000000
X      1.23221869    -0.71073621    -0.37431278
X      1.23219516    -0.71072285     0.37432705
X      1.06015000    -1.84125000     0.00000000
X     -0.71240000     1.22660000     0.00000000
X      0.00000000     1.22660000     0.00000000
X     -1.06060000     0.61330000     0.00000000
X     -1.18319554     1.77163463     0.39883623
X     -1.18308473     1.77169732    -0.39888134
X      0.71240000     1.22660000     0.00000000
X      1.06060000     0.61330000     0.00000000
X      1.18319703     1.77163379    -0.39883563
X      1.18310140     1.77168789     0.39887456
X     -1.40880000     0.00000000     0.00000000
X     -2.28030500     0.00000000     0.00000000
X      1.40880000     0.00000000     0.00000000
X      2.28030500     0.00000000     0.00000000
X     -1.40790000    -2.45590000     0.00000000
X     -1.37625575    -3.24994313     0.43057020
X     -1.37621144    -3.24991744    -0.43061432
X     -2.27804500    -2.47774500     0.00000000
X      1.40790000    -2.45590000     0.00000000
X      1.37620051    -3.24991110    -0.43062520
X      1.37617282    -3.24989504     0.43065277
X      2.27804500    -2.47774500     0.00000000
X     -1.40790000     2.45590000     0.00000000
X     -1.05535000     3.06385000     0.00000000
X     -2.27804500     2.47774500     0.00000000
X      1.40790000     2.45590000     0.00000000
X      1.05535000     3.06385000     0.00000000
X      2.27804500     2.47774500     0.00000000
X     -0.70280000    -3.67180000     0.00000000
X      0.00000000    -3.67180000     0.00000000
X     -1.13757500    -4.42379500     0.00000000
X      0.70280000    -3.67180000     0.00000000
X      1.13757500    -4.42379500     0.00000000
X     -0.70280000     3.67180000     0.00000000
X      0.00000000     4.05444915     0.41863857
X      0.00000000     4.05434600    -0.41873283
X     -1.13757500     4.42379500     0.00000000
X      0.70280000     3.67180000     0.00000000
X      1.13757500     4.42379500     0.00000000
He     -0.71240000    -1.22660000     0.00000000
He      0.71240000    -1.22660000     0.00000000
He      0.00000000    -1.22660000     0.00000000
He     -0.71240000     1.22660000     0.00000000
He      0.71240000     1.22660000     0.00000000
He      0.00000000     1.22660000     0.00000000
He     -1.40880000     0.00000000     0.00000000
He     -1.23223519    -0.71074558     0.37430277
He     -1.23227892    -0.71077040    -0.37427626
He     -1.06060000     0.61330000     0.00000000
He      1.40880000     0.00000000     0.00000000
He      1.23219516    -0.71072285     0.37432705
He      1.23221869    -0.71073621    -0.37431278
He      1.06060000     0.61330000     0.00000000
He     -1.40790000    -2.45590000     0.00000000
He     -1.06015000    -1.84125000     0.00000000
He      1.40790000    -2.45590000     0.00000000
He      1.06015000    -1.84125000     0.00000000
He     -1.40790000     2.45590000     0.00000000
He     -1.18308473     1.77169732    -0.39888134
He     -1.18319554     1.77163463     0.39883623
He      1.40790000     2.45590000     0.00000000
He      1.18310140     1.77168789     0.39887456
He      1.18319703     1.77163379    -0.39883563
He     -0.70280000    -3.67180000     0.00000000
He     -1.37621144    -3.24991744    -0.43061432
He     -1.37625575    -3.24994313     0.43057020
He      0.70280000    -3.67180000     0.00000000
He      1.37617282    -3.24989504     0.43065277
He      1.37620051    -3.24991110    -0.43062520
He      0.00000000    -3.67180000     0.00000000
He     -0.70280000     3.67180000     0.00000000
He     -1.05535000     3.06385000     0.00000000
He      0.70280000     3.67180000     0.00000000
He      0.00000000     4.05434600    -0.41873283
He      0.00000000     4.05444915     0.41863857
He      1.05535000     3.06385000     0.00000000
He     -2.28030500     0.00000000     0.00000000
He      2.28030500     0.00000000     0.00000000
He     -2.27804500    -2.47774500     0.00000000
He      2.27804500    -2.47774500     0.00000000
He     -2.27804500     2.47774500     0.00000000
He      2.27804500     2.47774500     0.00000000
He     -1.13757500    -4.42379500     0.00000000
He      1.13757500    -4.42379500     0.00000000
He     -1.13757500     4.42379500     0.00000000
He      1.13757500     4.42379500     0.00000000
