182              
angstrom
C      -0.71130000    -1.22630000     0.00000000
C       0.71130000    -1.22630000    -0.00000000
C      -0.71130000     1.22630000     0.00000000
C       0.71130000     1.22630000    -0.00000000
C      -1.40710000     0.00000000     0.00000000
C       1.40710000    -0.00000000     0.00000000
C      -0.71230000    -3.67890000    -0.00000000
C       0.71230000    -3.67890000    -0.00000000
C      -0.71230000     3.67890000    -0.00000000
C       0.71230000     3.67890000     0.00000000
C      -1.40810000    -2.45220000     0.00000000
C       1.40810000    -2.45220000     0.00000000
C      -1.40810000     2.45220000    -0.00000000
C       1.40810000     2.45220000     0.00000000
C      -1.40810000    -4.90740000    -0.00000000
C       1.40810000    -4.90740000    -0.00000000
C      -1.40810000     4.90740000    -0.00000000
C       1.40810000     4.90740000    -0.00000000
C      -0.70230000    -6.12370000     0.00000000
C       0.70230000    -6.12370000     0.00000000
C      -0.70230000     6.12370000     0.00000000
C       0.70230000     6.12370000    -0.00000000
H      -2.43250000    -0.00000000    -0.00000000
H       2.43250000     0.00000000     0.00000000
H      -2.43330000    -2.45150000    -0.00000000
H       2.43330000    -2.45150000     0.00000000
H      -2.43330000     2.45150000     0.00000000
H       2.43330000     2.45150000    -0.00000000
H      -2.43140000    -4.93320000     0.00000000
H       2.43140000    -4.93320000     0.00000000
H      -2.43140000     4.93320000    -0.00000000
H       2.43140000     4.93320000    -0.00000000
H      -1.21390000    -7.00830000    -0.00000000
H       1.21390000    -7.00830000     0.00000000
H      -1.21390000     7.00830000    -0.00000000
H       1.21390000     7.00830000     0.00000000
X     -0.71130000    -1.22630000     0.00000000
X      0.00000000    -1.22630000     0.00000000
X     -1.23074754    -0.71048571    -0.37418263
X     -1.23076575    -0.71049604     0.37417160
X     -1.05970000    -1.83925000     0.00000000
X      0.71130000    -1.22630000     0.00000000
X      1.23073642    -0.71047940    -0.37418937
X      1.23077146    -0.71049928     0.37416814
X      1.05970000    -1.83925000     0.00000000
X     -0.71130000     1.22630000     0.00000000
X      0.00000000     1.22630000     0.00000000
X     -1.05920000     0.61315000     0.00000000
X     -1.21044893     1.75356450    -0.38580850
X     -1.21058893     1.75348492     0.38573608
X      0.71130000     1.22630000     0.00000000
X      1.05920000     0.61315000     0.00000000
X      1.21054838     1.75350797    -0.38575706
X      1.21049997     1.75353549     0.38578211
X     -1.40710000     0.00000000     0.00000000
X     -2.27869000     0.00000000     0.00000000
X      1.40710000     0.00000000     0.00000000
X      2.27869000     0.00000000     0.00000000
X     -0.71230000    -3.67890000     0.00000000
X      0.00000000    -3.67890000    -0.00000000
X     -1.24995156    -3.17317952     0.36251066
X     -1.24993863    -3.17317219    -0.36251961
X     -1.06020000    -4.29315000    -0.00000000
X      0.71230000    -3.67890000     0.00000000
X      1.24990979    -3.17315583    -0.36253955
X      1.24995671    -3.17318245     0.36250709
X      1.06020000    -4.29315000    -0.00000000
X     -0.71230000     3.67890000     0.00000000
X      0.00000000     3.67890000     0.00000000
X     -1.06020000     3.06555000    -0.00000000
X     -1.16824643     4.23195447    -0.40445621
X     -1.16847604     4.23182442     0.40437510
X      0.71230000     3.67890000     0.00000000
X      1.06020000     3.06555000     0.00000000
X      1.16841664     4.23185807    -0.40439610
X      1.16841641     4.23185820     0.40439618
X     -1.40810000    -2.45220000     0.00000000
X     -2.27952000    -2.45160500     0.00000000
X      1.40810000    -2.45220000     0.00000000
X      2.27952000    -2.45160500     0.00000000
X     -1.40810000     2.45220000     0.00000000
X     -2.27952000     2.45160500     0.00000000
X      1.40810000     2.45220000     0.00000000
X      2.27952000     2.45160500     0.00000000
X     -1.40810000    -4.90740000     0.00000000
X     -1.38545296    -5.70719067     0.42066383
X     -1.38552720    -5.70723374    -0.42058591
X     -2.27790500    -4.92933000     0.00000000
X      1.40810000    -4.90740000     0.00000000
X      1.38558097    -5.70726495    -0.42052945
X      1.38549099    -5.70721273     0.42062392
X      2.27790500    -4.92933000     0.00000000
X     -1.40810000     4.90740000     0.00000000
X     -1.05520000     5.51555000     0.00000000
X     -2.27790500     4.92933000     0.00000000
X      1.40810000     4.90740000     0.00000000
X      1.05520000     5.51555000    -0.00000000
X      2.27790500     4.92933000     0.00000000
X     -0.70230000    -6.12370000     0.00000000
X      0.00000000    -6.12370000     0.00000000
X     -1.13716000    -6.87561000     0.00000000
X      0.70230000    -6.12370000     0.00000000
X      1.13716000    -6.87561000     0.00000000
X     -0.70230000     6.12370000     0.00000000
X      0.00000000     6.52000375    -0.40570799
X      0.00000000     6.52011732     0.40559702
X     -1.13716000     6.87561000     0.00000000
X      0.70230000     6.12370000     0.00000000
X      1.13716000     6.87561000     0.00000000
He     -0.71130000    -1.22630000     0.00000000
He      0.71130000    -1.22630000     0.00000000
He      0.00000000    -1.22630000     0.00000000
He     -0.71130000     1.22630000     0.00000000
He      0.71130000     1.22630000     0.00000000
He      0.00000000     1.22630000     0.00000000
He     -1.40710000     0.00000000     0.00000000
He     -1.23076575    -0.71049604     0.37417160
He     -1.23074754    -0.71048571    -0.37418263
He     -1.05920000     0.61315000     0.00000000
He      1.40710000     0.00000000     0.00000000
He      1.23077146    -0.71049928     0.37416814
He      1.23073642    -0.71047940    -0.37418937
He      1.05920000     0.61315000     0.00000000
He     -0.71230000    -3.67890000     0.00000000
He      0.71230000    -3.67890000     0.00000000
He      0.00000000    -3.67890000    -0.00000000
He     -0.71230000     3.67890000     0.00000000
He      0.71230000     3.67890000     0.00000000
He      0.00000000     3.67890000     0.00000000
He     -1.40810000    -2.45220000     0.00000000
He     -1.24993863    -3.17317219    -0.36251961
He     -1.24995156    -3.17317952     0.36251066
He     -1.05970000    -1.83925000     0.00000000
He      1.40810000    -2.45220000     0.00000000
He      1.24995671    -3.17318245     0.36250709
He      1.24990979    -3.17315583    -0.36253955
He      1.05970000    -1.83925000     0.00000000
He     -1.40810000     2.45220000     0.00000000
He     -1.21058893     1.75348492     0.38573608
He     -1.21044893     1.75356450    -0.38580850
He     -1.06020000     3.06555000    -0.00000000
He      1.40810000     2.45220000     0.00000000
He      1.21049997     1.75353549     0.38578211
He      1.21054838     1.75350797    -0.38575706
He      1.06020000     3.06555000     0.00000000
He     -1.40810000    -4.90740000     0.00000000
He     -1.06020000    -4.29315000    -0.00000000
He      1.40810000    -4.90740000     0.00000000
He      1.06020000    -4.29315000    -0.00000000
He     -1.40810000     4.90740000     0.00000000
He     -1.16847604     4.23182442     0.40437510
He     -1.16824643     4.23195447    -0.40445621
He      1.40810000     4.90740000     0.00000000
He      1.16841641     4.23185820     0.40439618
He      1.16841664     4.23185807    -0.40439610
He     -0.70230000    -6.12370000     0.00000000
He     -1.38552720    -5.70723374    -0.42058591
He     -1.38545296    -5.70719067     0.42066383
He      0.70230000    -6.12370000     0.00000000
He      1.38549099    -5.70721273     0.42062392
He      1.38558097    -5.70726495    -0.42052945
He      0.00000000    -6.12370000     0.00000000
He     -0.70230000     6.12370000     0.00000000
He     -1.05520000     5.51555000     0.00000000
He      0.70230000     6.12370000     0.00000000
He      0.00000000     6.52011732     0.40559702
He      0.00000000     6.52000375    -0.40570799
He      1.05520000     5.51555000    -0.00000000
He     -2.27869000     0.00000000     0.00000000
He      2.27869000     0.00000000     0.00000000
He     -2.27952000    -2.45160500     0.00000000
He      2.27952000    -2.45160500     0.00000000
He     -2.27952000     2.45160500     0.00000000
He      2.27952000     2.45160500     0.00000000
He     -2.27790500    -4.92933000     0.00000000
He      2.27790500    -4.92933000     0.00000000
He     -2.27790500     4.92933000     0.00000000
He      2.27790500     4.92933000     0.00000000
He     -1.13716000    -6.87561000     0.00000000
He      1.13716000    -6.87561000     0.00000000
He     -1.13716000     6.87561000     0.00000000
He      1.13716000     6.87561000     0.00000000
