25               
angstrom
O       1.51617785     0.00000000     0.06984280
O      -1.51617786     0.00000000    -0.06984291
H       1.64955199     0.77513700    -0.50952092
H       1.64955199    -0.77513700    -0.50952092
H      -1.64955195     0.77513700     0.50952180
H      -1.64955195    -0.77513700     0.50952180
X      1.51617785     0.00000000     0.06984280
X      1.62954587     0.65886645    -0.42261636
X      1.62954587    -0.65886645    -0.42261636
X      1.85510914     0.00000000     0.61149035
X      0.97453030     0.00000000     0.40877409
X     -1.51617786     0.00000000    -0.06984291
X     -1.62954584     0.65886645     0.42261709
X     -1.62954584    -0.65886645     0.42261709
X     -1.96808684     0.00000000    -0.79203986
X     -0.79398091     0.00000000    -0.52175189
He      1.51617785     0.00000000     0.06984280
He      1.85510914     0.00000000     0.61149035
He      0.97453030     0.00000000     0.40877409
He     -1.51617786     0.00000000    -0.06984291
He     -1.38103388     0.00000000    -0.65689588
He      1.62954587     0.65886645    -0.42261636
He      1.62954587    -0.65886645    -0.42261636
He     -1.62954584     0.65886645     0.42261709
He     -1.62954584    -0.65886645     0.42261709
