14               
angstrom
N       0.00000000     0.00000000     0.11649000
H       0.00000000     0.93973000    -0.27181000
H       0.81383000    -0.46986000    -0.27181000
H      -0.81383000    -0.46986000    -0.27181000
X     -0.00001373     0.00000822     0.11701893
X      0.00000000     0.79877050    -0.21356500
X      0.69175550    -0.39938100    -0.21356500
X     -0.69175550    -0.39938100    -0.21356500
X      0.00000000    -0.00000807     1.05702197
He      0.00022484    -0.00145845     0.14449753
He      0.00000000    -0.00000807     1.05702197
He      0.00000000     0.79877050    -0.21356500
He      0.69175550    -0.39938100    -0.21356500
He     -0.69175550    -0.39938100    -0.21356500
