25               
angstrom
O       1.76940075     0.00000000     0.06911068
O      -1.76940075     0.00000000    -0.06911079
H       1.89871988     0.77513700    -0.51117161
H       1.89871988    -0.77513700    -0.51117161
H      -1.89871983     0.77513700     0.51117250
H      -1.89871983    -0.77513700     0.51117250
X      1.76940075     0.00000000     0.06911068
X      0.00000000     0.00000000    -0.00000006
X      1.87932201     0.65886645    -0.42412927
X      1.87932201    -0.65886645    -0.42412927
X      2.60955028     0.00000000     0.40176927
X     -1.76940075     0.00000000    -0.06911079
X     -1.87932197     0.65886645     0.42413001
X     -1.87932197    -0.65886645     0.42413001
X     -2.12990512    -0.00000168    -0.79497352
X     -2.52909619     0.00000168     0.21320631
He      1.76940075     0.00000000     0.06911068
He      2.60955028     0.00000000     0.40176927
He     -1.76940075     0.00000000    -0.06911079
He      0.00000000     0.00000000    -0.00000006
He     -2.32950066     0.00000000    -0.29088361
He      1.87932201     0.65886645    -0.42412927
He      1.87932201    -0.65886645    -0.42412927
He     -1.87932197     0.65886645     0.42413001
He     -1.87932197    -0.65886645     0.42413001
