  23
 angstrom
F       1.31480000    -0.00000000     0.00000000
C      -0.05620000    -0.00000000     0.00000000
H      -0.41950000     1.02770000     0.00000000
H      -0.41950000    -0.51380000     0.89000000
H      -0.41950000    -0.51380000    -0.89000000
X      1.31374165    -0.00000020    -0.00000075
X      0.62930000    -0.00000000     0.00000000
X      1.54330001    -0.41129964     0.00055610
X      1.54330001     0.20538887    -0.35634691
X      1.54330001     0.20596247     0.35601568
X     -0.10012169     0.00000118     0.00000032
X     -0.36500500     0.87354499     0.00000000
X     -0.36500500    -0.43673000     0.75649999
X     -0.36500500    -0.43673000    -0.75649999
He      1.31268329    -0.00000029    -0.00000141
He      1.54330001    -0.41129964     0.00055610
He      1.54330001     0.20538887    -0.35634691
He      1.54330001     0.20596247     0.35601568
He     -0.09271321    -0.00000218    -0.00000038
He      0.62930000    -0.00000000     0.00000000
He     -0.36500501     0.87354502     0.00000000
He     -0.36500501    -0.43673001     0.75650002
He     -0.36500501    -0.43673001    -0.75650002
