  54
 angstrom
C       0.00000000     1.39700000     0.00000000
C       1.20980000     0.69850000     0.00000000
C       1.20980000    -0.69850000     0.00000000
C       0.00000000    -1.39700000     0.00000000
C      -1.20980000    -0.69850000     0.00000000
C      -1.20980000     0.69850000     0.00000000
H       0.00000000     2.48100000     0.00000000
H       2.14860000     1.24050000     0.00000000
H       2.14860000    -1.24050000     0.00000000
H       0.00000000    -2.48100000     0.00000000
H      -2.14860000    -1.24050000     0.00000000
H      -2.14860000     1.24050000     0.00000000
X      0.00659316     1.44042402    -0.00000044
X      0.59099259     1.02366240    -0.64980502
X      0.59096768     1.02361926     0.64980289
X     -0.60490000     1.04775000     0.00000000
X      0.00000000     2.31839999     0.00000000
X      1.24427427     0.72571469    -0.00000187
X      1.20980000     0.00000000     0.00000000
X      2.00777999     1.15920000     0.00000000
X      1.24475248    -0.72509773    -0.00000118
X      0.59094412    -1.02357846    -0.64981567
X      0.59101706    -1.02370479     0.64982192
X      2.00777999    -1.15920000     0.00000000
X      0.00643902    -1.44044714    -0.00000175
X     -0.60490000    -1.04775000     0.00000000
X      0.00000000    -2.31839999     0.00000000
X     -1.25054891    -0.71489028     0.00000037
X     -1.18212040     0.00000000    -0.64982557
X     -1.18193925     0.00000000     0.64981783
X     -2.00777999    -1.15920000     0.00000000
X     -1.25053067     0.71493556     0.00000164
X     -2.00777999     1.15920000     0.00000000
He     -0.00493117     1.43317870    -0.00000014
He      1.24366432     0.71215366     0.00000090
He      0.60490000     1.04775000     0.00000000
He      1.24385100    -0.71168120    -0.00000033
He      1.18194054     0.00000000    -0.64981788
He      1.18198043     0.00000000     0.64981959
He     -0.00498499    -1.43317132     0.00000084
He      0.60490000    -1.04775000     0.00000000
He     -1.23847760    -0.72110111    -0.00000018
He     -0.59092506    -1.02354544     0.64981403
He     -0.59103508    -1.02373600    -0.64982346
He     -1.23845282     0.72113252    -0.00000117
He     -0.59100222     1.02367909    -0.64982065
He     -0.59102456     1.02371778     0.64982256
He     -1.20980000     0.00000000     0.00000000
He      0.00000000     2.31840003     0.00000000
He      2.00778002     1.15920001     0.00000000
He      2.00778002    -1.15920001     0.00000000
He      0.00000000    -2.31840003     0.00000000
He     -2.00778002    -1.15920001     0.00000000
He     -2.00778002     1.15920001     0.00000000
