  26
 angstrom
C       0.00000000     0.00000000     0.76800000
C       0.00000000     0.00000000    -0.76800000
H      -1.01920000     0.00000000     1.15730000
H       0.50960000     0.88260000     1.15730000
H       0.50960000    -0.88260000     1.15730000
H       1.01920000     0.00000000    -1.15730000
H      -0.50960000    -0.88260000    -1.15730000
H      -0.50960000     0.88260000    -1.15730000
X      0.00032804    -0.00000056     0.72407953
X      0.00000000     0.00000000     0.00000000
X     -0.86631999     0.00000000     1.09890500
X      0.43316000     0.75020999     1.09890500
X      0.43316000    -0.75020999     1.09890500
X     -0.00000090    -0.00000005    -0.72407831
X      0.86631999     0.00000000    -1.09890500
X     -0.43316000    -0.75020999    -1.09890500
X     -0.43316000     0.75020999    -1.09890500
He     -0.00025037     0.00000094     0.80451236
He      0.00000334    -0.00000198    -0.80451321
He      0.00000000     0.00000000     0.00000000
He     -0.86632002     0.00000000     1.09890501
He      0.43316001     0.75021002     1.09890501
He      0.43316001    -0.75021002     1.09890501
He      0.86632002     0.00000000    -1.09890501
He     -0.43316001    -0.75021002    -1.09890501
He     -0.43316001     0.75021002    -1.09890501
