25
sym_fod1='X' sym_fod2='He'
O 1.51617785 0.0 0.0698428
O -1.51617786 0.0 -0.06984291
H 1.64955199 0.775137 -0.50952092
H 1.64955199 -0.775137 -0.50952092
H -1.64955195 0.775137 0.5095218
H -1.64955195 -0.775137 0.5095218
X 1.5173227552305966 -2.7760564017373247e-05 0.06962168736474332
X -1.5146157319933462 3.8360128066207824e-05 -0.06942262295571933
X -1.5822290105005559 0.39195307768339066 0.2273258494998833
X 1.5827080917201675 -0.3907724167476483 -0.22744946529969165
X 1.583703189311507 0.39173606401637595 -0.22697917295759742
X -1.5790150457616514 -0.39002765547300394 0.22600007800678412
X 1.2312952446965213 -7.616401888964359e-05 0.1708855990863423
X -1.2334091604872357 -0.0003152270430250958 -0.1749253966487298
X 1.7185813271074566 -0.00040326331861322706 0.29012377590133925
X -1.7196036746108483 0.00028291437959937927 -0.2862313051036005
He 1.5162000576037498 -4.076946889549071e-05 0.06945376408257764
He -1.5154772151308915 6.416357901619683e-05 -0.06935102499248987
He 1.5905341404119044 0.40859428458776165 -0.22523010064976587
He -1.5915212602650033 0.4089355602717557 0.22477872244319894
He 1.5909321710366422 -0.4092891381906826 -0.2244780174169362
He -1.5931061134752886 -0.40921988872144466 0.22501749814000835
He -1.4599841926008752 -0.0001108747235008273 -0.3855294471232647
He 1.4608611652801302 0.0008880193825665306 0.3859406697401218
He 0.0010951197392144291 -2.4836418684680554e-05 0.0001629105242550358
