58               
angstrom
C       0.67250000    -0.02000000    -0.00000000
C      -0.67250000     0.02000000     0.00000000
C       1.41030000    -1.16270000     0.00000000
C      -1.41030000     1.16270000    -0.00000000
C       2.74900000    -1.19820000     0.00000000
C      -2.74900000     1.19820000    -0.00000000
H       1.16390000     0.84750000    -0.00000000
H      -1.16390000    -0.84750000    -0.00000000
H       0.94320000    -2.04280000    -0.00000000
H      -0.94320000     2.04280000     0.00000000
H       3.23120000    -2.06580000     0.00000000
H       3.29610000    -0.36940000    -0.00000000
H      -3.23120000     2.06580000     0.00000000
H      -3.29610000     0.36940000     0.00000000
X      0.67250000    -0.02000000     0.00000000
X     -0.00062195    -0.02091316    -0.55294521
X     -0.00062534    -0.02102700     0.55294089
X      1.04140000    -0.59135000     0.00000000
X      1.09019000     0.71737500     0.00000000
X     -0.67250000     0.02000000     0.00000000
X     -1.04140000     0.59135000     0.00000000
X     -1.09019000    -0.71737500     0.00000000
X      1.41030000    -1.16270000     0.00000000
X      2.07515662    -1.34989470    -0.52636747
X      2.07515074    -1.35011665     0.52629592
X      1.01326500    -1.91078500     0.00000000
X     -1.41030000     1.16270000     0.00000000
X     -2.07515460     1.34997091    -0.52634291
X     -2.07515499     1.34995616     0.52634767
X     -1.01326500     1.91078500     0.00000000
X      2.74900000    -1.19820000     0.00000000
X      3.15887000    -1.93566000     0.00000000
X      3.21403500    -0.49372000     0.00000000
X     -2.74900000     1.19820000     0.00000000
X     -3.15887000     1.93566000     0.00000000
X     -3.21403500     0.49372000     0.00000000
He      0.67250000    -0.02000000     0.00000000
He     -0.67250000     0.02000000     0.00000000
He     -0.00062534    -0.02102700     0.55294089
He     -0.00062195    -0.02091316    -0.55294521
He      1.41030000    -1.16270000     0.00000000
He      1.04140000    -0.59135000     0.00000000
He     -1.41030000     1.16270000     0.00000000
He     -1.04140000     0.59135000     0.00000000
He      2.74900000    -1.19820000     0.00000000
He      2.07515074    -1.35011665     0.52629592
He      2.07515662    -1.34989470    -0.52636747
He     -2.74900000     1.19820000     0.00000000
He     -2.07515499     1.34995616     0.52634767
He     -2.07515460     1.34997091    -0.52634291
He      1.09019000     0.71737500     0.00000000
He     -1.09019000    -0.71737500     0.00000000
He      1.01326500    -1.91078500     0.00000000
He     -1.01326500     1.91078500     0.00000000
He      3.15887000    -1.93566000     0.00000000
He      3.21403500    -0.49372000     0.00000000
He     -3.15887000     1.93566000     0.00000000
He     -3.21403500     0.49372000     0.00000000
