94               
angstrom
C       0.67250000    -0.02450000    -0.00000000
C      -0.67250000     0.02450000     0.00000000
C       1.40070000    -1.17350000     0.00000000
C      -1.40070000     1.17350000    -0.00000000
C       2.74480000    -1.21650000    -0.00000000
C      -2.74480000     1.21650000    -0.00000000
C       3.47910000    -2.35910000    -0.00000000
C      -3.47910000     2.35910000     0.00000000
C       4.81830000    -2.39510000     0.00000000
C      -4.81830000     2.39510000     0.00000000
H       1.16820000     0.84040000     0.00000000
H      -1.16820000    -0.84040000    -0.00000000
H       0.90510000    -2.03920000     0.00000000
H      -0.90510000     2.03920000     0.00000000
H       3.23810000    -0.34930000    -0.00000000
H      -3.23810000     0.34930000     0.00000000
H       3.01010000    -3.23790000     0.00000000
H      -3.01010000     3.23790000    -0.00000000
H       5.36660000    -1.56760000     0.00000000
H       5.29740000    -3.26410000    -0.00000000
H      -5.29740000     3.26410000    -0.00000000
H      -5.36660000     1.56760000     0.00000000
X      0.67250000    -0.02450000     0.00000000
X     -0.00074467    -0.02044038    -0.55289040
X     -0.00073702    -0.02023054     0.55289813
X      1.03660000    -0.59900000     0.00000000
X      1.09384500     0.71066500     0.00000000
X     -0.67250000     0.02450000     0.00000000
X     -1.03660000     0.59900000     0.00000000
X     -1.09384500    -0.71066500     0.00000000
X      1.40070000    -1.17350000     0.00000000
X      2.07147710    -1.23478836    -0.55219321
X      2.07147847    -1.23474553     0.55219630
X      0.97944000    -1.90934500     0.00000000
X     -1.40070000     1.17350000     0.00000000
X     -2.07147903     1.23472809    -0.55219756
X     -2.07147869     1.23473883     0.55219678
X     -0.97944000     1.90934500     0.00000000
X      2.74480000    -1.21650000     0.00000000
X      3.11195000    -1.78780000    -0.00000000
X      3.16410500    -0.47938000     0.00000000
X     -2.74480000     1.21650000     0.00000000
X     -3.11195000     1.78780000     0.00000000
X     -3.16410500     0.47938000     0.00000000
X      3.47910000    -2.35910000     0.00000000
X      4.14347467    -2.57148224    -0.51751926
X      4.14347521    -2.57146202     0.51752686
X      3.08045000    -3.10608000     0.00000000
X     -3.47910000     2.35910000     0.00000000
X     -4.14347032     2.57164428     0.51745832
X     -4.14347724     2.57138655    -0.51755522
X     -3.08045000     3.10608000     0.00000000
X      4.81830000    -2.39510000     0.00000000
X      5.28435500    -1.69172500     0.00000000
X      5.22553500    -3.13375000     0.00000000
X     -4.81830000     2.39510000     0.00000000
X     -5.22553500     3.13375000     0.00000000
X     -5.28435500     1.69172500     0.00000000
He      0.67250000    -0.02450000     0.00000000
He     -0.67250000     0.02450000     0.00000000
He     -0.00073702    -0.02023054     0.55289813
He     -0.00074467    -0.02044038    -0.55289040
He      1.40070000    -1.17350000     0.00000000
He      1.03660000    -0.59900000     0.00000000
He     -1.40070000     1.17350000     0.00000000
He     -1.03660000     0.59900000     0.00000000
He      2.74480000    -1.21650000     0.00000000
He      2.07147847    -1.23474553     0.55219630
He      2.07147710    -1.23478836    -0.55219321
He     -2.74480000     1.21650000     0.00000000
He     -2.07147869     1.23473883     0.55219678
He     -2.07147903     1.23472809    -0.55219756
He      3.47910000    -2.35910000     0.00000000
He      3.11195000    -1.78780000    -0.00000000
He     -3.47910000     2.35910000     0.00000000
He     -3.11195000     1.78780000     0.00000000
He      4.81830000    -2.39510000     0.00000000
He      4.14347521    -2.57146202     0.51752686
He      4.14347467    -2.57148224    -0.51751926
He     -4.81830000     2.39510000     0.00000000
He     -4.14347724     2.57138655    -0.51755522
He     -4.14347032     2.57164428     0.51745832
He      1.09384500     0.71066500     0.00000000
He     -1.09384500    -0.71066500     0.00000000
He      0.97944000    -1.90934500     0.00000000
He     -0.97944000     1.90934500     0.00000000
He      3.16410500    -0.47938000     0.00000000
He     -3.16410500     0.47938000     0.00000000
He      3.08045000    -3.10608000     0.00000000
He     -3.08045000     3.10608000     0.00000000
He      5.28435500    -1.69172500     0.00000000
He      5.22553500    -3.13375000     0.00000000
He     -5.22553500     3.13375000     0.00000000
He     -5.28435500     1.69172500     0.00000000
