25               
angstrom
O       1.76940075     0.00000000     0.06911068
O      -1.76940075     0.00000000    -0.06911079
H       1.89871988     0.77513700    -0.51117161
H       1.89871988    -0.77513700    -0.51117161
H      -1.89871983     0.77513700     0.51117250
H      -1.89871983    -0.77513700     0.51117250
X      1.76940075     0.00000000     0.06911068
X      1.87932201     0.65886645    -0.42412927
X      1.87932201    -0.65886645    -0.42412927
X      2.22634872     0.00000000     0.78812935
X      1.05038208     0.00000000     0.52605865
X     -1.76940075     0.00000000    -0.06911079
X     -1.87932197     0.65886645     0.42413001
X     -1.87932197    -0.65886645     0.42413001
X     -2.22634932     0.00000000    -0.78812969
X     -1.05038185     0.00000000    -0.52605936
He      1.76940075     0.00000000     0.06911068
He      1.63836540     0.00000000     0.65709400
He     -1.76940075     0.00000000    -0.06911079
He     -1.63836559     0.00000000    -0.65709452
He      0.00000000     0.00000000    -0.00000000
He      1.87932201     0.65886645    -0.42412927
He      1.87932201    -0.65886645    -0.42412927
He     -1.87932197     0.65886645     0.42413001
He     -1.87932197    -0.65886645     0.42413001
