37               
 angstrom
Kr      0.00000000     0.00000000     0.00000000
X      0.00000000     0.00000000     0.00000000
X     -0.01927678    -0.00358043    -0.07527760
X     -0.06361135    -0.01029787     0.04357387
X      0.05181125    -0.05572267     0.01617747
X      0.03107687     0.06960097     0.01552627
X      0.15328392     0.02704351     0.22884176
X      0.18556212     0.20322057    -0.02939506
X     -0.07664593    -0.18400475     0.19199902
X     -0.11587415     0.22292159    -0.11608401
X     -0.03740976    -0.24996510    -0.11275775
X     -0.26789598    -0.04482547    -0.05308750
X      0.05006488     0.00639405    -0.27211851
X      0.24131544    -0.13278503    -0.02703236
X     -0.13239925     0.15200085     0.18963632
X     -0.34053182    -0.06745602    -1.26286821
X     -1.06134288    -0.17104818     0.74809235
X      0.87713917    -0.93547093     0.26621317
X      0.52473554     1.17397514     0.24856272
He      0.00000000     0.00000000     0.00000000
He      0.01942842     0.00368496     0.07523356
He      0.06348679     0.01045654    -0.04371750
He     -0.05200924     0.05556018    -0.01610084
He     -0.03090596    -0.06970168    -0.01541522
He     -0.15314409    -0.02670756    -0.22897479
He     -0.18580150    -0.20304339     0.02910594
He      0.07698466     0.18406628    -0.19180443
He      0.11554950    -0.22313269     0.11600202
He      0.03759460     0.24984026     0.11297277
He      0.26790468     0.04449829     0.05331836
He     -0.05027228    -0.00654428     0.27207670
He     -0.24119280     0.13302350     0.02695428
He      0.13237596    -0.15200061    -0.18965276
He      0.34448892     0.08207840     1.26092778
He      1.06150126     0.14672315    -0.75301777
He     -0.86619650     0.94217190    -0.27814413
He     -0.53979368    -1.17097346    -0.22976592
