  32
 angstrom
S       1.35600000    -0.30310000    -0.00000000
C      -0.44170000    -0.20020000    -0.00000000
H      -0.85920000    -1.20680000     0.00000000
H      -0.78080000     0.33070000     0.89000000
H      -0.78080000     0.33070000    -0.89000000
H       1.50650000     1.04870000     0.00000000
X      1.35640152    -0.30343788     0.00006818
X      1.59900235    -0.27180715    -0.00003604
X      1.26010283    -0.19874137     0.19985594
X      1.26014587    -0.19860575    -0.19980572
X      1.30377712    -0.54247869    -0.00004828
X      0.45715000    -0.25165000    -0.00000000
X      1.48392500     0.84592999     0.00000000
X      1.88536898    -0.65400716    -0.74980836
X      1.88522000    -0.65417585     0.74983456
X     -0.48560409    -0.19895683    -0.00000014
X     -0.79657500    -1.05580999     0.00000000
X     -0.72993500     0.25106500     0.75649999
X     -0.72993500     0.25106500    -0.75649999
He      1.35636266    -0.30346394    -0.00012670
He      1.25923072    -0.19765219     0.20211231
He      1.60159311    -0.27121069     0.00013498
He      1.25907543    -0.19748587    -0.20195099
He      1.30326897    -0.54507591     0.00013574
He      1.88536898    -0.65400716    -0.74980836
He      1.88522000    -0.65417585     0.74983456
He     -0.47819869    -0.19917015    -0.00000072
He      0.45715000    -0.25165000    -0.00000000
He     -0.79657501    -1.05581002     0.00000000
He     -0.72993501     0.25106501     0.75650002
He     -0.72993501     0.25106501    -0.75650002
He      1.48392500     0.84593003     0.00000000
