27               
angstrom
N       0.00000000     0.00000000    -1.89569694
N       0.00000000     0.00000000     1.89569694
H       0.84297303     0.48669071    -2.17137038
H       0.00000000    -0.97338141    -2.17137038
H      -0.84297303     0.48669071    -2.17137038
H       0.84297303    -0.48669071     2.17137038
H       0.00000000     0.97338141     2.17137038
H      -0.84297303    -0.48669071     2.17137038
X      0.00000000     0.00000000    -1.89569694
X      0.71652708     0.41368710    -2.13001936
X      0.00000000    -0.82737420    -2.13001936
X     -0.71652708     0.41368710    -2.13001936
X      0.00000000    -0.00000001    -0.95990629
X      0.00000000     0.00000000     1.89569694
X      0.71652708    -0.41368710     2.13001936
X      0.00000000     0.82737420     2.13001936
X     -0.71652708    -0.41368710     2.13001936
X      0.00000000    -0.00000001     0.95990629
He      0.00000000     0.00000000    -1.89569694
He      0.00000000    -0.00000001    -0.95990629
He      0.00000000     0.00000000     1.89569694
He      0.71652708     0.41368710    -2.13001936
He      0.00000000    -0.82737420    -2.13001936
He     -0.71652708     0.41368710    -2.13001936
He      0.71652708    -0.41368710     2.13001936
He      0.00000000     0.82737420     2.13001936
He     -0.71652708    -0.41368710     2.13001936
