  52
 angstrom
C      -0.72220000    -1.29260000     0.00730000
N      -0.08540000    -0.14190000    -0.02420000
C       1.32870000    -0.12770000    -0.04030000
C      -0.76020000     1.10020000     0.00530000
O      -1.86290000    -1.44570000     0.42340000
H       1.69400000    -0.11790000     0.98940000
H       1.78000000    -0.98940000    -0.54110000
H       1.74740000     0.74810000    -0.54350000
H      -0.47940000     1.66710000     0.89590000
H      -0.50050000     1.69350000    -0.87500000
H      -1.85170000     1.03790000     0.00450000
H      -0.28760000    -2.13170000    -0.30160000
X     -0.71257147    -1.33234603    -0.00872059
X     -0.40380000    -0.71725000    -0.00845000
X     -1.09959122    -1.40535238     0.73100849
X     -1.49191290    -1.22978033    -0.27990539
X     -0.35279000    -2.00583499    -0.25526500
X     -0.08518322    -0.14168589    -0.02463266
X      0.62165000    -0.13480000    -0.03225000
X     -0.42280000     0.47915000    -0.00945000
X     -0.07350829    -0.11934415     1.04016986
X      1.37237443    -0.12671556    -0.04484867
X      1.63920500    -0.11937000     0.83494499
X      1.71230500    -0.86014499    -0.46598000
X      1.68459500     0.61672999    -0.46802000
X     -0.77782598     1.14030867     0.00217996
X     -0.52152000     1.58206500     0.76230999
X     -0.53945500     1.60450500    -0.74295499
X     -1.68797499     1.04724500     0.00462000
X     -1.86172095    -1.44653588     0.42274320
X     -2.12579914    -1.84346572     0.45622107
X     -2.17042849    -1.12444954     0.59842889
He     -0.71413465    -1.32559619    -0.00609463
He     -0.07612371    -0.13268993    -0.04901380
He     -0.40380000    -0.71725000    -0.00845000
He     -0.07350829    -0.11934415     1.04016986
He      1.36501909    -0.12691422    -0.04397710
He      0.62165000    -0.13480000    -0.03225000
He     -0.77494825     1.13351019     0.00282314
He     -0.42280000     0.47915000    -0.00945000
He     -1.84515696    -1.45867518     0.41294203
He     -1.49191290    -1.22978033    -0.27990539
He     -1.09959122    -1.40535238     0.73100849
He     -2.12579914    -1.84346572     0.45622107
He     -2.17042849    -1.12444954     0.59842889
He      1.63920501    -0.11937000     0.83494502
He      1.71230501    -0.86014502    -0.46598001
He      1.68459501     0.61673002    -0.46802001
He     -0.52151999     1.58206501     0.76231002
He     -0.53945499     1.60450501    -0.74295502
He     -1.68797503     1.04724500     0.00462000
He     -0.35278999    -2.00583502    -0.25526501
