35               
angstrom
S       0.00000000     0.00000000     0.37027000
O       0.00000000     1.27762000    -0.37027000
O       0.00000000    -1.27762000    -0.37027000
X      0.00000000     0.00000000     0.37027000
X      0.10382346     0.20000201     0.46644313
X      0.03321024    -0.00056024     0.12752290
X     -0.23993423     0.00065231     0.41987371
X      0.10290053    -0.20009408     0.46724025
X      0.43276234     0.68633351     0.08199015
X     -0.43274238     0.68637919     0.08206897
X     -0.43273955    -0.68638567     0.08208014
X      0.43274580    -0.68637136     0.08205546
X      0.00000000     0.00000000     1.10863176
X      0.00000000     1.27762000    -0.37027000
X     -0.00003583     1.37486300    -0.93869100
X      0.00009948     1.81918699    -0.17211901
X      0.00000000    -1.27762000    -0.37027000
X      0.00015267    -1.37486301    -0.93869098
X     -0.00015772    -1.81918699    -0.17211902
He      0.00000000     0.00000000     0.37027000
He      0.24256079    -0.00081566     0.42023515
He     -0.03375058    -0.00100783     0.12492779
He     -0.10352923     0.20311694     0.46700741
He     -0.10528098    -0.20129346     0.46890965
He      0.00000000     0.00000000     1.10863176
He      0.00000000     1.27762000    -0.37027000
He     -0.43274238     0.68637919     0.08206897
He      0.43276234     0.68633351     0.08199015
He     -0.00003583     1.37486300    -0.93869100
He      0.00009948     1.81918699    -0.17211901
He      0.00000000    -1.27762000    -0.37027000
He      0.43274580    -0.68637136     0.08205546
He     -0.43273955    -0.68638567     0.08208014
He      0.00015267    -1.37486301    -0.93869098
He     -0.00015772    -1.81918699    -0.17211902
