12               
angstrom
O       0.00000000     0.00000000     0.38516109
H      -0.81305560     0.00000000    -0.19258055
H       0.81305560     0.00000000    -0.19258055
X      0.00000000     0.00000000     0.38516109
X     -0.69109726     0.00000000    -0.10591930
X      0.69109726     0.00000000    -0.10591930
X      0.00000000     0.61507510     1.00023619
X      0.00000000    -0.61507510     1.00023619
He      0.00000000     0.00000000     0.38516109
He      0.00000000     0.00000000     1.00023619
He     -0.69109726     0.00000000    -0.10591930
He      0.69109726     0.00000000    -0.10591930
