13               
angstrom
N       0.00000000     0.00000000     0.00000000
H       0.50940010    -0.88230686     0.00000000
H       0.50940010     0.88230686     0.00000000
H      -1.01880021     0.00000000     0.00000000
X      0.00000000     0.00000000     0.00000000
X      0.43299009    -0.74996083     0.00000000
X      0.43299009     0.74996083     0.00000000
X     -0.86598018     0.00000000     0.00000000
X      0.00000000     0.00000000     0.94239019
He      0.00000000     0.00000000     0.00000000
He      0.43299009    -0.74996083     0.00000000
He      0.43299009     0.74996083     0.00000000
He     -0.86598018     0.00000000     0.00000000
