13               
angstrom
O       0.00000000     0.00000000     0.39393904
H      -0.75503878     0.00000000    -0.19696952
H       0.75503878     0.00000000    -0.19696952
X      0.00000000     0.00000000     0.39393904
X     -0.64178296     0.00000000    -0.10833324
X      0.64178296     0.00000000    -0.10833324
X      0.00000000     0.44343512     0.83737416
X      0.00000000    -0.44343512     0.83737416
He      0.00000000     0.00000000     0.39393904
He      0.00000000     0.44343512     0.83737416
He      0.00000000    -0.44343512     0.83737416
He     -0.64178296     0.00000000    -0.10833324
He      0.64178296     0.00000000    -0.10833324
