27               
angstrom
N       0.00000000     0.00000000    -1.08325539
N       0.00000000     0.00000000     1.08325539
H       0.84297303     0.48669071    -1.35892883
H       0.00000000    -0.97338141    -1.35892883
H      -0.84297303     0.48669071    -1.35892883
H       0.84297303    -0.48669071     1.35892883
H       0.00000000     0.97338141     1.35892883
H      -0.84297303    -0.48669071     1.35892883
X      0.00000000     0.00000000    -1.08325539
X      0.71652708     0.41368710    -1.31757781
X      0.00000000    -0.82737420    -1.31757781
X     -0.71652708     0.41368710    -1.31757781
X      0.00000000    -0.00000001    -0.14746474
X      0.00000000     0.00000000     1.08325539
X      0.71652708    -0.41368710     1.31757781
X      0.00000000     0.82737420     1.31757781
X     -0.71652708    -0.41368710     1.31757781
X      0.00000000     0.00000002     0.78832590
He      0.00000000     0.00000000    -1.08325539
He      0.00000000    -0.00000001    -0.14746474
He      0.00000000     0.00000000     1.08325539
He      0.71652708     0.41368710    -1.31757781
He      0.00000000    -0.82737420    -1.31757781
He     -0.71652708     0.41368710    -1.31757781
He      0.71652708    -0.41368710     1.31757781
He      0.00000000     0.82737420     1.31757781
He     -0.71652708    -0.41368710     1.31757781
